---------- Begin Simulation Statistics ----------
simSeconds                                   0.435761                       # Number of seconds simulated (Second)
simTicks                                 435760998000                       # Number of ticks simulated (Tick)
finalTick                                435760998000                       # Number of ticks from beginning of simulation (restored from checkpoints and never reset) (Tick)
simFreq                                  1000000000000                       # The number of ticks per simulated second ((Tick/Second))
hostSeconds                                    131.15                       # Real time elapsed on the host (Second)
hostTickRate                               3322645394                       # The number of ticks simulated per host second (ticks/s) ((Tick/Second))
hostMemory                                     680696                       # Number of bytes of host memory used (Byte)
simInsts                                     88767643                       # Number of instructions simulated (Count)
simOps                                      120776373                       # Number of ops (including micro ops) simulated (Count)
hostInstRate                                   676846                       # Simulator instruction rate (inst/s) ((Count/Second))
hostOpRate                                     920910                       # Simulator op (including micro ops) rate (op/s) ((Count/Second))
system.clk_domain.clock                          1000                       # Clock period in ticks (Tick)     
system.clk_domain.voltage_domain.voltage            1                       # Voltage in Volts (Volt)
system.cpu.numCycles                        435760998                       # Number of cpu cycles simulated (Cycle)
system.cpu.cpi                               4.909006                       # CPI: cycles per instruction (core level) ((Cycle/Count))
system.cpu.ipc                               0.203707                       # IPC: instructions per cycle (core level) ((Count/Cycle))
system.cpu.numWorkItemsStarted                      0                       # Number of work items this cpu started (Count)
system.cpu.numWorkItemsCompleted                    0                       # Number of work items this cpu completed (Count)
system.cpu.commitStats0.numInsts             88767658                       # Number of instructions committed (thread level) (Count)
system.cpu.commitStats0.numOps              120776390                       # Number of ops (including micro ops) committed (thread level) (Count)
system.cpu.commitStats0.numInstsNotNOP              0                       # Number of instructions committed excluding NOPs or prefetches (Count)
system.cpu.commitStats0.numOpsNotNOP                0                       # Number of Ops (including micro ops) Simulated (Count)
system.cpu.commitStats0.cpi                  4.909006                       # CPI: cycles per instruction (thread level) ((Cycle/Count))
system.cpu.commitStats0.ipc                  0.203707                       # IPC: instructions per cycle (thread level) ((Count/Cycle))
system.cpu.commitStats0.numMemRefs                  0                       # Number of memory references committed (Count)
system.cpu.commitStats0.numFpInsts           19187116                       # Number of float instructions (Count)
system.cpu.commitStats0.numIntInsts         109863510                       # Number of integer instructions (Count)
system.cpu.commitStats0.numLoadInsts         28085662                       # Number of load instructions (Count)
system.cpu.commitStats0.numStoreInsts         4696845                       # Number of store instructions (Count)
system.cpu.commitStats0.numVecInsts                 0                       # Number of vector instructions (Count)
system.cpu.commitStats0.committedInstType::No_OpClass        98565      0.08%      0.08% # Class of committed instruction. (Count)
system.cpu.commitStats0.committedInstType::IntAlu     77179447     63.90%     63.98% # Class of committed instruction. (Count)
system.cpu.commitStats0.committedInstType::IntMult           41      0.00%     63.98% # Class of committed instruction. (Count)
system.cpu.commitStats0.committedInstType::IntDiv           21      0.00%     63.98% # Class of committed instruction. (Count)
system.cpu.commitStats0.committedInstType::FloatAdd      6324370      5.24%     69.22% # Class of committed instruction. (Count)
system.cpu.commitStats0.committedInstType::FloatCmp            0      0.00%     69.22% # Class of committed instruction. (Count)
system.cpu.commitStats0.committedInstType::FloatCvt            0      0.00%     69.22% # Class of committed instruction. (Count)
system.cpu.commitStats0.committedInstType::FloatMult            0      0.00%     69.22% # Class of committed instruction. (Count)
system.cpu.commitStats0.committedInstType::FloatMultAcc            0      0.00%     69.22% # Class of committed instruction. (Count)
system.cpu.commitStats0.committedInstType::FloatDiv            0      0.00%     69.22% # Class of committed instruction. (Count)
system.cpu.commitStats0.committedInstType::FloatMisc            0      0.00%     69.22% # Class of committed instruction. (Count)
system.cpu.commitStats0.committedInstType::FloatSqrt            0      0.00%     69.22% # Class of committed instruction. (Count)
system.cpu.commitStats0.committedInstType::SimdAdd           10      0.00%     69.22% # Class of committed instruction. (Count)
system.cpu.commitStats0.committedInstType::SimdAddAcc            0      0.00%     69.22% # Class of committed instruction. (Count)
system.cpu.commitStats0.committedInstType::SimdAlu        98531      0.08%     69.30% # Class of committed instruction. (Count)
system.cpu.commitStats0.committedInstType::SimdCmp            0      0.00%     69.30% # Class of committed instruction. (Count)
system.cpu.commitStats0.committedInstType::SimdCvt           66      0.00%     69.30% # Class of committed instruction. (Count)
system.cpu.commitStats0.committedInstType::SimdMisc        32989      0.03%     69.33% # Class of committed instruction. (Count)
system.cpu.commitStats0.committedInstType::SimdMult            0      0.00%     69.33% # Class of committed instruction. (Count)
system.cpu.commitStats0.committedInstType::SimdMultAcc            0      0.00%     69.33% # Class of committed instruction. (Count)
system.cpu.commitStats0.committedInstType::SimdMatMultAcc            0      0.00%     69.33% # Class of committed instruction. (Count)
system.cpu.commitStats0.committedInstType::SimdShift            3      0.00%     69.33% # Class of committed instruction. (Count)
system.cpu.commitStats0.committedInstType::SimdShiftAcc            0      0.00%     69.33% # Class of committed instruction. (Count)
system.cpu.commitStats0.committedInstType::SimdDiv            0      0.00%     69.33% # Class of committed instruction. (Count)
system.cpu.commitStats0.committedInstType::SimdSqrt            0      0.00%     69.33% # Class of committed instruction. (Count)
system.cpu.commitStats0.committedInstType::SimdFloatAdd      2097152      1.74%     71.07% # Class of committed instruction. (Count)
system.cpu.commitStats0.committedInstType::SimdFloatAlu            0      0.00%     71.07% # Class of committed instruction. (Count)
system.cpu.commitStats0.committedInstType::SimdFloatCmp            0      0.00%     71.07% # Class of committed instruction. (Count)
system.cpu.commitStats0.committedInstType::SimdFloatCvt        32768      0.03%     71.09% # Class of committed instruction. (Count)
system.cpu.commitStats0.committedInstType::SimdFloatDiv        32768      0.03%     71.12% # Class of committed instruction. (Count)
system.cpu.commitStats0.committedInstType::SimdFloatMisc            0      0.00%     71.12% # Class of committed instruction. (Count)
system.cpu.commitStats0.committedInstType::SimdFloatMult      2097152      1.74%     72.86% # Class of committed instruction. (Count)
system.cpu.commitStats0.committedInstType::SimdFloatMultAcc            0      0.00%     72.86% # Class of committed instruction. (Count)
system.cpu.commitStats0.committedInstType::SimdFloatMatMultAcc            0      0.00%     72.86% # Class of committed instruction. (Count)
system.cpu.commitStats0.committedInstType::SimdFloatSqrt            0      0.00%     72.86% # Class of committed instruction. (Count)
system.cpu.commitStats0.committedInstType::SimdReduceAdd            0      0.00%     72.86% # Class of committed instruction. (Count)
system.cpu.commitStats0.committedInstType::SimdReduceAlu            0      0.00%     72.86% # Class of committed instruction. (Count)
system.cpu.commitStats0.committedInstType::SimdReduceCmp            0      0.00%     72.86% # Class of committed instruction. (Count)
system.cpu.commitStats0.committedInstType::SimdFloatReduceAdd            0      0.00%     72.86% # Class of committed instruction. (Count)
system.cpu.commitStats0.committedInstType::SimdFloatReduceCmp            0      0.00%     72.86% # Class of committed instruction. (Count)
system.cpu.commitStats0.committedInstType::SimdAes            0      0.00%     72.86% # Class of committed instruction. (Count)
system.cpu.commitStats0.committedInstType::SimdAesMix            0      0.00%     72.86% # Class of committed instruction. (Count)
system.cpu.commitStats0.committedInstType::SimdSha1Hash            0      0.00%     72.86% # Class of committed instruction. (Count)
system.cpu.commitStats0.committedInstType::SimdSha1Hash2            0      0.00%     72.86% # Class of committed instruction. (Count)
system.cpu.commitStats0.committedInstType::SimdSha256Hash            0      0.00%     72.86% # Class of committed instruction. (Count)
system.cpu.commitStats0.committedInstType::SimdSha256Hash2            0      0.00%     72.86% # Class of committed instruction. (Count)
system.cpu.commitStats0.committedInstType::SimdShaSigma2            0      0.00%     72.86% # Class of committed instruction. (Count)
system.cpu.commitStats0.committedInstType::SimdShaSigma3            0      0.00%     72.86% # Class of committed instruction. (Count)
system.cpu.commitStats0.committedInstType::SimdPredAlu            0      0.00%     72.86% # Class of committed instruction. (Count)
system.cpu.commitStats0.committedInstType::Matrix            0      0.00%     72.86% # Class of committed instruction. (Count)
system.cpu.commitStats0.committedInstType::MatrixMov            0      0.00%     72.86% # Class of committed instruction. (Count)
system.cpu.commitStats0.committedInstType::MatrixOP            0      0.00%     72.86% # Class of committed instruction. (Count)
system.cpu.commitStats0.committedInstType::MemRead     21761321     18.02%     90.87% # Class of committed instruction. (Count)
system.cpu.commitStats0.committedInstType::MemWrite      2550026      2.11%     92.99% # Class of committed instruction. (Count)
system.cpu.commitStats0.committedInstType::FloatMemRead      6324341      5.24%     98.22% # Class of committed instruction. (Count)
system.cpu.commitStats0.committedInstType::FloatMemWrite      2146819      1.78%    100.00% # Class of committed instruction. (Count)
system.cpu.commitStats0.committedInstType::IprAccess            0      0.00%    100.00% # Class of committed instruction. (Count)
system.cpu.commitStats0.committedInstType::InstPrefetch            0      0.00%    100.00% # Class of committed instruction. (Count)
system.cpu.commitStats0.committedInstType::VectorUnitStrideLoad            0      0.00%    100.00% # Class of committed instruction. (Count)
system.cpu.commitStats0.committedInstType::VectorUnitStrideStore            0      0.00%    100.00% # Class of committed instruction. (Count)
system.cpu.commitStats0.committedInstType::VectorUnitStrideMaskLoad            0      0.00%    100.00% # Class of committed instruction. (Count)
system.cpu.commitStats0.committedInstType::VectorUnitStrideMaskStore            0      0.00%    100.00% # Class of committed instruction. (Count)
system.cpu.commitStats0.committedInstType::VectorStridedLoad            0      0.00%    100.00% # Class of committed instruction. (Count)
system.cpu.commitStats0.committedInstType::VectorStridedStore            0      0.00%    100.00% # Class of committed instruction. (Count)
system.cpu.commitStats0.committedInstType::VectorIndexedLoad            0      0.00%    100.00% # Class of committed instruction. (Count)
system.cpu.commitStats0.committedInstType::VectorIndexedStore            0      0.00%    100.00% # Class of committed instruction. (Count)
system.cpu.commitStats0.committedInstType::VectorUnitStrideFaultOnlyFirstLoad            0      0.00%    100.00% # Class of committed instruction. (Count)
system.cpu.commitStats0.committedInstType::VectorWholeRegisterLoad            0      0.00%    100.00% # Class of committed instruction. (Count)
system.cpu.commitStats0.committedInstType::VectorWholeRegisterStore            0      0.00%    100.00% # Class of committed instruction. (Count)
system.cpu.commitStats0.committedInstType::VectorIntegerArith            0      0.00%    100.00% # Class of committed instruction. (Count)
system.cpu.commitStats0.committedInstType::VectorFloatArith            0      0.00%    100.00% # Class of committed instruction. (Count)
system.cpu.commitStats0.committedInstType::VectorFloatConvert            0      0.00%    100.00% # Class of committed instruction. (Count)
system.cpu.commitStats0.committedInstType::VectorIntegerReduce            0      0.00%    100.00% # Class of committed instruction. (Count)
system.cpu.commitStats0.committedInstType::VectorFloatReduce            0      0.00%    100.00% # Class of committed instruction. (Count)
system.cpu.commitStats0.committedInstType::VectorMisc            0      0.00%    100.00% # Class of committed instruction. (Count)
system.cpu.commitStats0.committedInstType::VectorIntegerExtension            0      0.00%    100.00% # Class of committed instruction. (Count)
system.cpu.commitStats0.committedInstType::VectorConfig            0      0.00%    100.00% # Class of committed instruction. (Count)
system.cpu.commitStats0.committedInstType::total    120776390                       # Class of committed instruction. (Count)
system.cpu.commitStats0.committedControl::IsControl      2655263                       # Class of control type instructions committed (Count)
system.cpu.commitStats0.committedControl::IsDirectControl      2552447                       # Class of control type instructions committed (Count)
system.cpu.commitStats0.committedControl::IsIndirectControl       102816                       # Class of control type instructions committed (Count)
system.cpu.commitStats0.committedControl::IsCondControl      2430812                       # Class of control type instructions committed (Count)
system.cpu.commitStats0.committedControl::IsUncondControl       224451                       # Class of control type instructions committed (Count)
system.cpu.commitStats0.committedControl::IsCall       100646                       # Class of control type instructions committed (Count)
system.cpu.commitStats0.committedControl::IsReturn       100641                       # Class of control type instructions committed (Count)
system.cpu.dcache.demandHits::cpu.data       30473798                       # number of demand (read+write) hits (Count)
system.cpu.dcache.demandHits::total          30473798                       # number of demand (read+write) hits (Count)
system.cpu.dcache.overallHits::cpu.data      30473798                       # number of overall hits (Count)   
system.cpu.dcache.overallHits::total         30473798                       # number of overall hits (Count)   
system.cpu.dcache.demandMisses::cpu.data      2177588                       # number of demand (read+write) misses (Count)
system.cpu.dcache.demandMisses::total         2177588                       # number of demand (read+write) misses (Count)
system.cpu.dcache.overallMisses::cpu.data      2177588                       # number of overall misses (Count)
system.cpu.dcache.overallMisses::total        2177588                       # number of overall misses (Count) 
system.cpu.dcache.demandMissLatency::cpu.data 128019837000                       # number of demand (read+write) miss ticks (Tick)
system.cpu.dcache.demandMissLatency::total 128019837000                       # number of demand (read+write) miss ticks (Tick)
system.cpu.dcache.overallMissLatency::cpu.data 128019837000                       # number of overall miss ticks (Tick)
system.cpu.dcache.overallMissLatency::total 128019837000                       # number of overall miss ticks (Tick)
system.cpu.dcache.demandAccesses::cpu.data     32651386                       # number of demand (read+write) accesses (Count)
system.cpu.dcache.demandAccesses::total      32651386                       # number of demand (read+write) accesses (Count)
system.cpu.dcache.overallAccesses::cpu.data     32651386                       # number of overall (read+write) accesses (Count)
system.cpu.dcache.overallAccesses::total     32651386                       # number of overall (read+write) accesses (Count)
system.cpu.dcache.demandMissRate::cpu.data     0.066692                       # miss rate for demand accesses (Ratio)
system.cpu.dcache.demandMissRate::total      0.066692                       # miss rate for demand accesses (Ratio)
system.cpu.dcache.overallMissRate::cpu.data     0.066692                       # miss rate for overall accesses (Ratio)
system.cpu.dcache.overallMissRate::total     0.066692                       # miss rate for overall accesses (Ratio)
system.cpu.dcache.demandAvgMissLatency::cpu.data 58789.742137                       # average overall miss latency in ticks ((Tick/Count))
system.cpu.dcache.demandAvgMissLatency::total 58789.742137                       # average overall miss latency in ticks ((Tick/Count))
system.cpu.dcache.overallAvgMissLatency::cpu.data 58789.742137                       # average overall miss latency ((Tick/Count))
system.cpu.dcache.overallAvgMissLatency::total 58789.742137                       # average overall miss latency ((Tick/Count))
system.cpu.dcache.blockedCycles::no_mshrs            0                       # number of cycles access was blocked (Cycle)
system.cpu.dcache.blockedCycles::no_targets            0                       # number of cycles access was blocked (Cycle)
system.cpu.dcache.blockedCauses::no_mshrs            0                       # number of times access was blocked (Count)
system.cpu.dcache.blockedCauses::no_targets            0                       # number of times access was blocked (Count)
system.cpu.dcache.avgBlocked::no_mshrs            nan                       # average number of cycles each access was blocked ((Cycle/Count))
system.cpu.dcache.avgBlocked::no_targets          nan                       # average number of cycles each access was blocked ((Cycle/Count))
system.cpu.dcache.writebacks::writebacks        55945                       # number of writebacks (Count)     
system.cpu.dcache.writebacks::total             55945                       # number of writebacks (Count)     
system.cpu.dcache.demandMshrMisses::cpu.data      2177588                       # number of demand (read+write) MSHR misses (Count)
system.cpu.dcache.demandMshrMisses::total      2177588                       # number of demand (read+write) MSHR misses (Count)
system.cpu.dcache.overallMshrMisses::cpu.data      2177588                       # number of overall MSHR misses (Count)
system.cpu.dcache.overallMshrMisses::total      2177588                       # number of overall MSHR misses (Count)
system.cpu.dcache.demandMshrMissLatency::cpu.data 123664661000                       # number of demand (read+write) MSHR miss ticks (Tick)
system.cpu.dcache.demandMshrMissLatency::total 123664661000                       # number of demand (read+write) MSHR miss ticks (Tick)
system.cpu.dcache.overallMshrMissLatency::cpu.data 123664661000                       # number of overall MSHR miss ticks (Tick)
system.cpu.dcache.overallMshrMissLatency::total 123664661000                       # number of overall MSHR miss ticks (Tick)
system.cpu.dcache.demandMshrMissRate::cpu.data     0.066692                       # mshr miss ratio for demand accesses (Ratio)
system.cpu.dcache.demandMshrMissRate::total     0.066692                       # mshr miss ratio for demand accesses (Ratio)
system.cpu.dcache.overallMshrMissRate::cpu.data     0.066692                       # mshr miss ratio for overall accesses (Ratio)
system.cpu.dcache.overallMshrMissRate::total     0.066692                       # mshr miss ratio for overall accesses (Ratio)
system.cpu.dcache.demandAvgMshrMissLatency::cpu.data 56789.742137                       # average overall mshr miss latency ((Tick/Count))
system.cpu.dcache.demandAvgMshrMissLatency::total 56789.742137                       # average overall mshr miss latency ((Tick/Count))
system.cpu.dcache.overallAvgMshrMissLatency::cpu.data 56789.742137                       # average overall mshr miss latency ((Tick/Count))
system.cpu.dcache.overallAvgMshrMissLatency::total 56789.742137                       # average overall mshr miss latency ((Tick/Count))
system.cpu.dcache.replacements                2176600                       # number of replacements (Count)   
system.cpu.dcache.LockedRMWReadReq.hits::cpu.data        65524                       # number of LockedRMWReadReq hits (Count)
system.cpu.dcache.LockedRMWReadReq.hits::total        65524                       # number of LockedRMWReadReq hits (Count)
system.cpu.dcache.LockedRMWReadReq.misses::cpu.data           36                       # number of LockedRMWReadReq misses (Count)
system.cpu.dcache.LockedRMWReadReq.misses::total           36                       # number of LockedRMWReadReq misses (Count)
system.cpu.dcache.LockedRMWReadReq.missLatency::cpu.data      1036000                       # number of LockedRMWReadReq miss ticks (Tick)
system.cpu.dcache.LockedRMWReadReq.missLatency::total      1036000                       # number of LockedRMWReadReq miss ticks (Tick)
system.cpu.dcache.LockedRMWReadReq.accesses::cpu.data        65560                       # number of LockedRMWReadReq accesses(hits+misses) (Count)
system.cpu.dcache.LockedRMWReadReq.accesses::total        65560                       # number of LockedRMWReadReq accesses(hits+misses) (Count)
system.cpu.dcache.LockedRMWReadReq.missRate::cpu.data     0.000549                       # miss rate for LockedRMWReadReq accesses (Ratio)
system.cpu.dcache.LockedRMWReadReq.missRate::total     0.000549                       # miss rate for LockedRMWReadReq accesses (Ratio)
system.cpu.dcache.LockedRMWReadReq.avgMissLatency::cpu.data 28777.777778                       # average LockedRMWReadReq miss latency ((Tick/Count))
system.cpu.dcache.LockedRMWReadReq.avgMissLatency::total 28777.777778                       # average LockedRMWReadReq miss latency ((Tick/Count))
system.cpu.dcache.LockedRMWReadReq.mshrMisses::cpu.data           36                       # number of LockedRMWReadReq MSHR misses (Count)
system.cpu.dcache.LockedRMWReadReq.mshrMisses::total           36                       # number of LockedRMWReadReq MSHR misses (Count)
system.cpu.dcache.LockedRMWReadReq.mshrMissLatency::cpu.data    133048000                       # number of LockedRMWReadReq MSHR miss ticks (Tick)
system.cpu.dcache.LockedRMWReadReq.mshrMissLatency::total    133048000                       # number of LockedRMWReadReq MSHR miss ticks (Tick)
system.cpu.dcache.LockedRMWReadReq.mshrMissRate::cpu.data     0.000549                       # mshr miss rate for LockedRMWReadReq accesses (Ratio)
system.cpu.dcache.LockedRMWReadReq.mshrMissRate::total     0.000549                       # mshr miss rate for LockedRMWReadReq accesses (Ratio)
system.cpu.dcache.LockedRMWReadReq.avgMshrMissLatency::cpu.data 3695777.777778                       # average LockedRMWReadReq mshr miss latency ((Tick/Count))
system.cpu.dcache.LockedRMWReadReq.avgMshrMissLatency::total 3695777.777778                       # average LockedRMWReadReq mshr miss latency ((Tick/Count))
system.cpu.dcache.LockedRMWWriteReq.hits::cpu.data        65560                       # number of LockedRMWWriteReq hits (Count)
system.cpu.dcache.LockedRMWWriteReq.hits::total        65560                       # number of LockedRMWWriteReq hits (Count)
system.cpu.dcache.LockedRMWWriteReq.accesses::cpu.data        65560                       # number of LockedRMWWriteReq accesses(hits+misses) (Count)
system.cpu.dcache.LockedRMWWriteReq.accesses::total        65560                       # number of LockedRMWWriteReq accesses(hits+misses) (Count)
system.cpu.dcache.ReadReq.hits::cpu.data     25896316                       # number of ReadReq hits (Count)   
system.cpu.dcache.ReadReq.hits::total        25896316                       # number of ReadReq hits (Count)   
system.cpu.dcache.ReadReq.misses::cpu.data      2123787                       # number of ReadReq misses (Count)
system.cpu.dcache.ReadReq.misses::total       2123787                       # number of ReadReq misses (Count) 
system.cpu.dcache.ReadReq.missLatency::cpu.data 126295866000                       # number of ReadReq miss ticks (Tick)
system.cpu.dcache.ReadReq.missLatency::total 126295866000                       # number of ReadReq miss ticks (Tick)
system.cpu.dcache.ReadReq.accesses::cpu.data     28020103                       # number of ReadReq accesses(hits+misses) (Count)
system.cpu.dcache.ReadReq.accesses::total     28020103                       # number of ReadReq accesses(hits+misses) (Count)
system.cpu.dcache.ReadReq.missRate::cpu.data     0.075795                       # miss rate for ReadReq accesses (Ratio)
system.cpu.dcache.ReadReq.missRate::total     0.075795                       # miss rate for ReadReq accesses (Ratio)
system.cpu.dcache.ReadReq.avgMissLatency::cpu.data 59467.294037                       # average ReadReq miss latency ((Tick/Count))
system.cpu.dcache.ReadReq.avgMissLatency::total 59467.294037                       # average ReadReq miss latency ((Tick/Count))
system.cpu.dcache.ReadReq.mshrMisses::cpu.data      2123787                       # number of ReadReq MSHR misses (Count)
system.cpu.dcache.ReadReq.mshrMisses::total      2123787                       # number of ReadReq MSHR misses (Count)
system.cpu.dcache.ReadReq.mshrMissLatency::cpu.data 122048292000                       # number of ReadReq MSHR miss ticks (Tick)
system.cpu.dcache.ReadReq.mshrMissLatency::total 122048292000                       # number of ReadReq MSHR miss ticks (Tick)
system.cpu.dcache.ReadReq.mshrMissRate::cpu.data     0.075795                       # mshr miss rate for ReadReq accesses (Ratio)
system.cpu.dcache.ReadReq.mshrMissRate::total     0.075795                       # mshr miss rate for ReadReq accesses (Ratio)
system.cpu.dcache.ReadReq.avgMshrMissLatency::cpu.data 57467.294037                       # average ReadReq mshr miss latency ((Tick/Count))
system.cpu.dcache.ReadReq.avgMshrMissLatency::total 57467.294037                       # average ReadReq mshr miss latency ((Tick/Count))
system.cpu.dcache.WriteReq.hits::cpu.data      4577482                       # number of WriteReq hits (Count) 
system.cpu.dcache.WriteReq.hits::total        4577482                       # number of WriteReq hits (Count)  
system.cpu.dcache.WriteReq.misses::cpu.data        53801                       # number of WriteReq misses (Count)
system.cpu.dcache.WriteReq.misses::total        53801                       # number of WriteReq misses (Count)
system.cpu.dcache.WriteReq.missLatency::cpu.data   1723971000                       # number of WriteReq miss ticks (Tick)
system.cpu.dcache.WriteReq.missLatency::total   1723971000                       # number of WriteReq miss ticks (Tick)
system.cpu.dcache.WriteReq.accesses::cpu.data      4631283                       # number of WriteReq accesses(hits+misses) (Count)
system.cpu.dcache.WriteReq.accesses::total      4631283                       # number of WriteReq accesses(hits+misses) (Count)
system.cpu.dcache.WriteReq.missRate::cpu.data     0.011617                       # miss rate for WriteReq accesses (Ratio)
system.cpu.dcache.WriteReq.missRate::total     0.011617                       # miss rate for WriteReq accesses (Ratio)
system.cpu.dcache.WriteReq.avgMissLatency::cpu.data 32043.475028                       # average WriteReq miss latency ((Tick/Count))
system.cpu.dcache.WriteReq.avgMissLatency::total 32043.475028                       # average WriteReq miss latency ((Tick/Count))
system.cpu.dcache.WriteReq.mshrMisses::cpu.data        53801                       # number of WriteReq MSHR misses (Count)
system.cpu.dcache.WriteReq.mshrMisses::total        53801                       # number of WriteReq MSHR misses (Count)
system.cpu.dcache.WriteReq.mshrMissLatency::cpu.data   1616369000                       # number of WriteReq MSHR miss ticks (Tick)
system.cpu.dcache.WriteReq.mshrMissLatency::total   1616369000                       # number of WriteReq MSHR miss ticks (Tick)
system.cpu.dcache.WriteReq.mshrMissRate::cpu.data     0.011617                       # mshr miss rate for WriteReq accesses (Ratio)
system.cpu.dcache.WriteReq.mshrMissRate::total     0.011617                       # mshr miss rate for WriteReq accesses (Ratio)
system.cpu.dcache.WriteReq.avgMshrMissLatency::cpu.data 30043.475028                       # average WriteReq mshr miss latency ((Tick/Count))
system.cpu.dcache.WriteReq.avgMshrMissLatency::total 30043.475028                       # average WriteReq mshr miss latency ((Tick/Count))
system.cpu.dcache.power_state.pwrStateResidencyTicks::UNDEFINED 435760998000                       # Cumulative time (in ticks) in various power states (Tick)
system.cpu.dcache.tags.tagsInUse          1022.825398                       # Average ticks per tags in use ((Tick/Count))
system.cpu.dcache.tags.totalRefs             32782506                       # Total number of references to valid blocks. (Count)
system.cpu.dcache.tags.sampledRefs            2177624                       # Sample count of references to valid blocks. (Count)
system.cpu.dcache.tags.avgRefs              15.054255                       # Average number of references to valid blocks. ((Count/Count))
system.cpu.dcache.tags.warmupTick              156000                       # The tick when the warmup percentage was hit. (Tick)
system.cpu.dcache.tags.occupancies::cpu.data  1022.825398                       # Average occupied blocks per tick, per requestor ((Count/Tick))
system.cpu.dcache.tags.avgOccs::cpu.data     0.998853                       # Average percentage of cache occupancy ((Ratio/Tick))
system.cpu.dcache.tags.avgOccs::total        0.998853                       # Average percentage of cache occupancy ((Ratio/Tick))
system.cpu.dcache.tags.occupanciesTaskId::1024         1024                       # Occupied blocks per task id (Count)
system.cpu.dcache.tags.ageTaskId_1024::0           47                       # Occupied blocks per task id, per block age (Count)
system.cpu.dcache.tags.ageTaskId_1024::1           56                       # Occupied blocks per task id, per block age (Count)
system.cpu.dcache.tags.ageTaskId_1024::2          248                       # Occupied blocks per task id, per block age (Count)
system.cpu.dcache.tags.ageTaskId_1024::3          672                       # Occupied blocks per task id, per block age (Count)
system.cpu.dcache.tags.ageTaskId_1024::4            1                       # Occupied blocks per task id, per block age (Count)
system.cpu.dcache.tags.ratioOccsTaskId::1024            1                       # Ratio of occupied blocks and all blocks, per task id (Ratio)
system.cpu.dcache.tags.tagAccesses           67742636                       # Number of tag accesses (Count)   
system.cpu.dcache.tags.dataAccesses          67742636                       # Number of data accesses (Count)  
system.cpu.dcache.tags.power_state.pwrStateResidencyTicks::UNDEFINED 435760998000                       # Cumulative time (in ticks) in various power states (Tick)
system.cpu.exec_context.thread_0.numMatAluAccesses            0                       # Number of matrix alu accesses (Count)
system.cpu.exec_context.thread_0.numCallsReturns       201287                       # Number of times a function call or return occured (Count)
system.cpu.exec_context.thread_0.numMatInsts            0                       # Number of matrix instructions (Count)
system.cpu.exec_context.thread_0.numIdleCycles     0.001000                       # Number of idle cycles (Cycle)
system.cpu.exec_context.thread_0.numBusyCycles 435760997.999000                       # Number of busy cycles (Cycle)
system.cpu.exec_context.thread_0.notIdleFraction     1.000000                       # Percentage of non-idle cycles (Ratio)
system.cpu.exec_context.thread_0.idleFraction     0.000000                       # Percentage of idle cycles (Ratio)
system.cpu.executeStats0.numInsts                   0                       # Number of executed instructions (Count)
system.cpu.executeStats0.numNop                     0                       # Number of nop insts executed (Count)
system.cpu.executeStats0.numBranches                0                       # Number of branches executed (Count)
system.cpu.executeStats0.numLoadInsts               0                       # Number of load instructions executed (Count)
system.cpu.executeStats0.numStoreInsts       32782507                       # Number of stores executed (Count)
system.cpu.executeStats0.instRate                   0                       # Inst execution rate ((Count/Cycle))
system.cpu.executeStats0.numFpAluAccesses     19187116                       # Number of float alu accesses (Count)
system.cpu.executeStats0.numFpRegReads       15124176                       # Number of times the floating registers were read (Count)
system.cpu.executeStats0.numFpRegWrites      17040240                       # Number of times the floating registers were written (Count)
system.cpu.executeStats0.numIntAluAccesses    109863510                       # Number of integer alu accesses (Count)
system.cpu.executeStats0.numIntRegReads     152977912                       # Number of times the integer registers were read (Count)
system.cpu.executeStats0.numIntRegWrites     93755510                       # Number of times the integer registers were written (Count)
system.cpu.executeStats0.numMemRefs          32782507                       # Number of memory refs (Count)    
system.cpu.executeStats0.numMiscRegReads     46561522                       # Number of times the Misc registers were read (Count)
system.cpu.executeStats0.numVecAluAccesses            0                       # Number of vector alu accesses (Count)
system.cpu.executeStats0.numDiscardedOps            0                       # Number of ops (including micro ops) which were discarded before commit (Count)
system.cpu.fetchStats0.numInsts              88767658                       # Number of instructions fetched (thread level) (Count)
system.cpu.fetchStats0.numOps               120776390                       # Number of ops (including micro ops) fetched (thread level) (Count)
system.cpu.fetchStats0.fetchRate             0.203707                       # Number of inst fetches per cycle ((Count/Cycle))
system.cpu.fetchStats0.numBranches            2655263                       # Number of branches fetched (Count)
system.cpu.fetchStats0.branchRate            0.006093                       # Number of branch fetches per cycle (Ratio)
system.cpu.fetchStats0.numFetchSuspends             0                       # Number of times Execute suspended instruction fetching (Count)
system.cpu.icache.demandHits::cpu.inst      123248658                       # number of demand (read+write) hits (Count)
system.cpu.icache.demandHits::total         123248658                       # number of demand (read+write) hits (Count)
system.cpu.icache.overallHits::cpu.inst     123248658                       # number of overall hits (Count)   
system.cpu.icache.overallHits::total        123248658                       # number of overall hits (Count)   
system.cpu.icache.demandMisses::cpu.inst          530                       # number of demand (read+write) misses (Count)
system.cpu.icache.demandMisses::total             530                       # number of demand (read+write) misses (Count)
system.cpu.icache.overallMisses::cpu.inst          530                       # number of overall misses (Count)
system.cpu.icache.overallMisses::total            530                       # number of overall misses (Count) 
system.cpu.icache.demandMissLatency::cpu.inst     31744000                       # number of demand (read+write) miss ticks (Tick)
system.cpu.icache.demandMissLatency::total     31744000                       # number of demand (read+write) miss ticks (Tick)
system.cpu.icache.overallMissLatency::cpu.inst     31744000                       # number of overall miss ticks (Tick)
system.cpu.icache.overallMissLatency::total     31744000                       # number of overall miss ticks (Tick)
system.cpu.icache.demandAccesses::cpu.inst    123249188                       # number of demand (read+write) accesses (Count)
system.cpu.icache.demandAccesses::total     123249188                       # number of demand (read+write) accesses (Count)
system.cpu.icache.overallAccesses::cpu.inst    123249188                       # number of overall (read+write) accesses (Count)
system.cpu.icache.overallAccesses::total    123249188                       # number of overall (read+write) accesses (Count)
system.cpu.icache.demandMissRate::cpu.inst     0.000004                       # miss rate for demand accesses (Ratio)
system.cpu.icache.demandMissRate::total      0.000004                       # miss rate for demand accesses (Ratio)
system.cpu.icache.overallMissRate::cpu.inst     0.000004                       # miss rate for overall accesses (Ratio)
system.cpu.icache.overallMissRate::total     0.000004                       # miss rate for overall accesses (Ratio)
system.cpu.icache.demandAvgMissLatency::cpu.inst 59894.339623                       # average overall miss latency in ticks ((Tick/Count))
system.cpu.icache.demandAvgMissLatency::total 59894.339623                       # average overall miss latency in ticks ((Tick/Count))
system.cpu.icache.overallAvgMissLatency::cpu.inst 59894.339623                       # average overall miss latency ((Tick/Count))
system.cpu.icache.overallAvgMissLatency::total 59894.339623                       # average overall miss latency ((Tick/Count))
system.cpu.icache.blockedCycles::no_mshrs            0                       # number of cycles access was blocked (Cycle)
system.cpu.icache.blockedCycles::no_targets            0                       # number of cycles access was blocked (Cycle)
system.cpu.icache.blockedCauses::no_mshrs            0                       # number of times access was blocked (Count)
system.cpu.icache.blockedCauses::no_targets            0                       # number of times access was blocked (Count)
system.cpu.icache.avgBlocked::no_mshrs            nan                       # average number of cycles each access was blocked ((Cycle/Count))
system.cpu.icache.avgBlocked::no_targets          nan                       # average number of cycles each access was blocked ((Cycle/Count))
system.cpu.icache.demandMshrMisses::cpu.inst          530                       # number of demand (read+write) MSHR misses (Count)
system.cpu.icache.demandMshrMisses::total          530                       # number of demand (read+write) MSHR misses (Count)
system.cpu.icache.overallMshrMisses::cpu.inst          530                       # number of overall MSHR misses (Count)
system.cpu.icache.overallMshrMisses::total          530                       # number of overall MSHR misses (Count)
system.cpu.icache.demandMshrMissLatency::cpu.inst     30684000                       # number of demand (read+write) MSHR miss ticks (Tick)
system.cpu.icache.demandMshrMissLatency::total     30684000                       # number of demand (read+write) MSHR miss ticks (Tick)
system.cpu.icache.overallMshrMissLatency::cpu.inst     30684000                       # number of overall MSHR miss ticks (Tick)
system.cpu.icache.overallMshrMissLatency::total     30684000                       # number of overall MSHR miss ticks (Tick)
system.cpu.icache.demandMshrMissRate::cpu.inst     0.000004                       # mshr miss ratio for demand accesses (Ratio)
system.cpu.icache.demandMshrMissRate::total     0.000004                       # mshr miss ratio for demand accesses (Ratio)
system.cpu.icache.overallMshrMissRate::cpu.inst     0.000004                       # mshr miss ratio for overall accesses (Ratio)
system.cpu.icache.overallMshrMissRate::total     0.000004                       # mshr miss ratio for overall accesses (Ratio)
system.cpu.icache.demandAvgMshrMissLatency::cpu.inst 57894.339623                       # average overall mshr miss latency ((Tick/Count))
system.cpu.icache.demandAvgMshrMissLatency::total 57894.339623                       # average overall mshr miss latency ((Tick/Count))
system.cpu.icache.overallAvgMshrMissLatency::cpu.inst 57894.339623                       # average overall mshr miss latency ((Tick/Count))
system.cpu.icache.overallAvgMshrMissLatency::total 57894.339623                       # average overall mshr miss latency ((Tick/Count))
system.cpu.icache.replacements                    281                       # number of replacements (Count)   
system.cpu.icache.ReadReq.hits::cpu.inst    123248658                       # number of ReadReq hits (Count)   
system.cpu.icache.ReadReq.hits::total       123248658                       # number of ReadReq hits (Count)   
system.cpu.icache.ReadReq.misses::cpu.inst          530                       # number of ReadReq misses (Count)
system.cpu.icache.ReadReq.misses::total           530                       # number of ReadReq misses (Count) 
system.cpu.icache.ReadReq.missLatency::cpu.inst     31744000                       # number of ReadReq miss ticks (Tick)
system.cpu.icache.ReadReq.missLatency::total     31744000                       # number of ReadReq miss ticks (Tick)
system.cpu.icache.ReadReq.accesses::cpu.inst    123249188                       # number of ReadReq accesses(hits+misses) (Count)
system.cpu.icache.ReadReq.accesses::total    123249188                       # number of ReadReq accesses(hits+misses) (Count)
system.cpu.icache.ReadReq.missRate::cpu.inst     0.000004                       # miss rate for ReadReq accesses (Ratio)
system.cpu.icache.ReadReq.missRate::total     0.000004                       # miss rate for ReadReq accesses (Ratio)
system.cpu.icache.ReadReq.avgMissLatency::cpu.inst 59894.339623                       # average ReadReq miss latency ((Tick/Count))
system.cpu.icache.ReadReq.avgMissLatency::total 59894.339623                       # average ReadReq miss latency ((Tick/Count))
system.cpu.icache.ReadReq.mshrMisses::cpu.inst          530                       # number of ReadReq MSHR misses (Count)
system.cpu.icache.ReadReq.mshrMisses::total          530                       # number of ReadReq MSHR misses (Count)
system.cpu.icache.ReadReq.mshrMissLatency::cpu.inst     30684000                       # number of ReadReq MSHR miss ticks (Tick)
system.cpu.icache.ReadReq.mshrMissLatency::total     30684000                       # number of ReadReq MSHR miss ticks (Tick)
system.cpu.icache.ReadReq.mshrMissRate::cpu.inst     0.000004                       # mshr miss rate for ReadReq accesses (Ratio)
system.cpu.icache.ReadReq.mshrMissRate::total     0.000004                       # mshr miss rate for ReadReq accesses (Ratio)
system.cpu.icache.ReadReq.avgMshrMissLatency::cpu.inst 57894.339623                       # average ReadReq mshr miss latency ((Tick/Count))
system.cpu.icache.ReadReq.avgMshrMissLatency::total 57894.339623                       # average ReadReq mshr miss latency ((Tick/Count))
system.cpu.icache.power_state.pwrStateResidencyTicks::UNDEFINED 435760998000                       # Cumulative time (in ticks) in various power states (Tick)
system.cpu.icache.tags.tagsInUse           242.986376                       # Average ticks per tags in use ((Tick/Count))
system.cpu.icache.tags.totalRefs            123249188                       # Total number of references to valid blocks. (Count)
system.cpu.icache.tags.sampledRefs                530                       # Sample count of references to valid blocks. (Count)
system.cpu.icache.tags.avgRefs           232545.637736                       # Average number of references to valid blocks. ((Count/Count))
system.cpu.icache.tags.warmupTick               77000                       # The tick when the warmup percentage was hit. (Tick)
system.cpu.icache.tags.occupancies::cpu.inst   242.986376                       # Average occupied blocks per tick, per requestor ((Count/Tick))
system.cpu.icache.tags.avgOccs::cpu.inst     0.949166                       # Average percentage of cache occupancy ((Ratio/Tick))
system.cpu.icache.tags.avgOccs::total        0.949166                       # Average percentage of cache occupancy ((Ratio/Tick))
system.cpu.icache.tags.occupanciesTaskId::1024          249                       # Occupied blocks per task id (Count)
system.cpu.icache.tags.ageTaskId_1024::0           60                       # Occupied blocks per task id, per block age (Count)
system.cpu.icache.tags.ageTaskId_1024::4          189                       # Occupied blocks per task id, per block age (Count)
system.cpu.icache.tags.ratioOccsTaskId::1024     0.972656                       # Ratio of occupied blocks and all blocks, per task id (Ratio)
system.cpu.icache.tags.tagAccesses          246498906                       # Number of tag accesses (Count)   
system.cpu.icache.tags.dataAccesses         246498906                       # Number of data accesses (Count)  
system.cpu.icache.tags.power_state.pwrStateResidencyTicks::UNDEFINED 435760998000                       # Cumulative time (in ticks) in various power states (Tick)
system.cpu.interrupts.clk_domain.clock          16000                       # Clock period in ticks (Tick)     
system.cpu.mmu.dtb.rdAccesses                28085664                       # TLB accesses on read requests (Count)
system.cpu.mmu.dtb.wrAccesses                 4696845                       # TLB accesses on write requests (Count)
system.cpu.mmu.dtb.rdMisses                       116                       # TLB misses on read requests (Count)
system.cpu.mmu.dtb.wrMisses                       108                       # TLB misses on write requests (Count)
system.cpu.mmu.dtb.walker.power_state.pwrStateResidencyTicks::UNDEFINED 435760998000                       # Cumulative time (in ticks) in various power states (Tick)
system.cpu.mmu.itb.rdAccesses                       0                       # TLB accesses on read requests (Count)
system.cpu.mmu.itb.wrAccesses               123249188                       # TLB accesses on write requests (Count)
system.cpu.mmu.itb.rdMisses                         0                       # TLB misses on read requests (Count)
system.cpu.mmu.itb.wrMisses                        43                       # TLB misses on write requests (Count)
system.cpu.mmu.itb.walker.power_state.pwrStateResidencyTicks::UNDEFINED 435760998000                       # Cumulative time (in ticks) in various power states (Tick)
system.cpu.power_state.pwrStateResidencyTicks::ON 435760998000                       # Cumulative time (in ticks) in various power states (Tick)
system.cpu.thread_0.numInsts                        0                       # Number of Instructions committed (Count)
system.cpu.thread_0.numOps                          0                       # Number of Ops committed (Count)  
system.cpu.thread_0.numMemRefs                      0                       # Number of Memory References (Count)
system.cpu.workload.numSyscalls                    14                       # Number of system calls (Count)   
system.mem_ctrl.avgPriority_writebacks::samples     12626.00                       # Average QoS priority value for accepted requests (Count)
system.mem_ctrl.avgPriority_cpu.inst::samples       530.00                       # Average QoS priority value for accepted requests (Count)
system.mem_ctrl.avgPriority_cpu.data::samples   2130079.00                       # Average QoS priority value for accepted requests (Count)
system.mem_ctrl.priorityMinLatency       0.000000018750                       # per QoS priority minimum request to response latency (Second)
system.mem_ctrl.priorityMaxLatency       0.025711586500                       # per QoS priority maximum request to response latency (Second)
system.mem_ctrl.numReadWriteTurnArounds           723                       # Number of turnarounds from READ to WRITE (Count)
system.mem_ctrl.numWriteReadTurnArounds           723                       # Number of turnarounds from WRITE to READ (Count)
system.mem_ctrl.numStayReadState              4428844                       # Number of times bus staying in READ state (Count)
system.mem_ctrl.numStayWriteState               11892                       # Number of times bus staying in WRITE state (Count)
system.mem_ctrl.readReqs                      2178154                       # Number of read requests accepted (Count)
system.mem_ctrl.writeReqs                       55945                       # Number of write requests accepted (Count)
system.mem_ctrl.readBursts                    2178154                       # Number of controller read bursts, including those serviced by the write queue (Count)
system.mem_ctrl.writeBursts                     55945                       # Number of controller write bursts, including those merged in the write queue (Count)
system.mem_ctrl.servicedByWrQ                   47545                       # Number of controller read bursts serviced by the write queue (Count)
system.mem_ctrl.mergedWrBursts                  43319                       # Number of controller write bursts merged with an existing one (Count)
system.mem_ctrl.neitherReadNorWriteReqs             0                       # Number of requests that are neither read nor write (Count)
system.mem_ctrl.avgRdQLen                        1.00                       # Average read queue length when enqueuing ((Count/Tick))
system.mem_ctrl.avgWrQLen                       24.53                       # Average write queue length when enqueuing ((Count/Tick))
system.mem_ctrl.numRdRetry                          0                       # Number of times read queue was full causing retry (Count)
system.mem_ctrl.numWrRetry                          0                       # Number of times write queue was full causing retry (Count)
system.mem_ctrl.readPktSize::0                      0                       # Read request sizes (log2) (Count)
system.mem_ctrl.readPktSize::1                      0                       # Read request sizes (log2) (Count)
system.mem_ctrl.readPktSize::2                      0                       # Read request sizes (log2) (Count)
system.mem_ctrl.readPktSize::3                      0                       # Read request sizes (log2) (Count)
system.mem_ctrl.readPktSize::4                      0                       # Read request sizes (log2) (Count)
system.mem_ctrl.readPktSize::5                      0                       # Read request sizes (log2) (Count)
system.mem_ctrl.readPktSize::6                2178154                       # Read request sizes (log2) (Count)
system.mem_ctrl.writePktSize::0                     0                       # Write request sizes (log2) (Count)
system.mem_ctrl.writePktSize::1                     0                       # Write request sizes (log2) (Count)
system.mem_ctrl.writePktSize::2                     0                       # Write request sizes (log2) (Count)
system.mem_ctrl.writePktSize::3                     0                       # Write request sizes (log2) (Count)
system.mem_ctrl.writePktSize::4                     0                       # Write request sizes (log2) (Count)
system.mem_ctrl.writePktSize::5                     0                       # Write request sizes (log2) (Count)
system.mem_ctrl.writePktSize::6                 55945                       # Write request sizes (log2) (Count)
system.mem_ctrl.rdQLenPdf::0                  2130609                       # What read queue length does an incoming req see (Count)
system.mem_ctrl.rdQLenPdf::1                        0                       # What read queue length does an incoming req see (Count)
system.mem_ctrl.rdQLenPdf::2                        0                       # What read queue length does an incoming req see (Count)
system.mem_ctrl.rdQLenPdf::3                        0                       # What read queue length does an incoming req see (Count)
system.mem_ctrl.rdQLenPdf::4                        0                       # What read queue length does an incoming req see (Count)
system.mem_ctrl.rdQLenPdf::5                        0                       # What read queue length does an incoming req see (Count)
system.mem_ctrl.rdQLenPdf::6                        0                       # What read queue length does an incoming req see (Count)
system.mem_ctrl.rdQLenPdf::7                        0                       # What read queue length does an incoming req see (Count)
system.mem_ctrl.rdQLenPdf::8                        0                       # What read queue length does an incoming req see (Count)
system.mem_ctrl.rdQLenPdf::9                        0                       # What read queue length does an incoming req see (Count)
system.mem_ctrl.rdQLenPdf::10                       0                       # What read queue length does an incoming req see (Count)
system.mem_ctrl.rdQLenPdf::11                       0                       # What read queue length does an incoming req see (Count)
system.mem_ctrl.rdQLenPdf::12                       0                       # What read queue length does an incoming req see (Count)
system.mem_ctrl.rdQLenPdf::13                       0                       # What read queue length does an incoming req see (Count)
system.mem_ctrl.rdQLenPdf::14                       0                       # What read queue length does an incoming req see (Count)
system.mem_ctrl.rdQLenPdf::15                       0                       # What read queue length does an incoming req see (Count)
system.mem_ctrl.rdQLenPdf::16                       0                       # What read queue length does an incoming req see (Count)
system.mem_ctrl.rdQLenPdf::17                       0                       # What read queue length does an incoming req see (Count)
system.mem_ctrl.rdQLenPdf::18                       0                       # What read queue length does an incoming req see (Count)
system.mem_ctrl.rdQLenPdf::19                       0                       # What read queue length does an incoming req see (Count)
system.mem_ctrl.rdQLenPdf::20                       0                       # What read queue length does an incoming req see (Count)
system.mem_ctrl.rdQLenPdf::21                       0                       # What read queue length does an incoming req see (Count)
system.mem_ctrl.rdQLenPdf::22                       0                       # What read queue length does an incoming req see (Count)
system.mem_ctrl.rdQLenPdf::23                       0                       # What read queue length does an incoming req see (Count)
system.mem_ctrl.rdQLenPdf::24                       0                       # What read queue length does an incoming req see (Count)
system.mem_ctrl.rdQLenPdf::25                       0                       # What read queue length does an incoming req see (Count)
system.mem_ctrl.rdQLenPdf::26                       0                       # What read queue length does an incoming req see (Count)
system.mem_ctrl.rdQLenPdf::27                       0                       # What read queue length does an incoming req see (Count)
system.mem_ctrl.rdQLenPdf::28                       0                       # What read queue length does an incoming req see (Count)
system.mem_ctrl.rdQLenPdf::29                       0                       # What read queue length does an incoming req see (Count)
system.mem_ctrl.rdQLenPdf::30                       0                       # What read queue length does an incoming req see (Count)
system.mem_ctrl.rdQLenPdf::31                       0                       # What read queue length does an incoming req see (Count)
system.mem_ctrl.wrQLenPdf::0                        1                       # What write queue length does an incoming req see (Count)
system.mem_ctrl.wrQLenPdf::1                        1                       # What write queue length does an incoming req see (Count)
system.mem_ctrl.wrQLenPdf::2                        1                       # What write queue length does an incoming req see (Count)
system.mem_ctrl.wrQLenPdf::3                        1                       # What write queue length does an incoming req see (Count)
system.mem_ctrl.wrQLenPdf::4                        1                       # What write queue length does an incoming req see (Count)
system.mem_ctrl.wrQLenPdf::5                        1                       # What write queue length does an incoming req see (Count)
system.mem_ctrl.wrQLenPdf::6                        1                       # What write queue length does an incoming req see (Count)
system.mem_ctrl.wrQLenPdf::7                        1                       # What write queue length does an incoming req see (Count)
system.mem_ctrl.wrQLenPdf::8                        1                       # What write queue length does an incoming req see (Count)
system.mem_ctrl.wrQLenPdf::9                        1                       # What write queue length does an incoming req see (Count)
system.mem_ctrl.wrQLenPdf::10                       1                       # What write queue length does an incoming req see (Count)
system.mem_ctrl.wrQLenPdf::11                       1                       # What write queue length does an incoming req see (Count)
system.mem_ctrl.wrQLenPdf::12                       1                       # What write queue length does an incoming req see (Count)
system.mem_ctrl.wrQLenPdf::13                       1                       # What write queue length does an incoming req see (Count)
system.mem_ctrl.wrQLenPdf::14                       1                       # What write queue length does an incoming req see (Count)
system.mem_ctrl.wrQLenPdf::15                     516                       # What write queue length does an incoming req see (Count)
system.mem_ctrl.wrQLenPdf::16                     518                       # What write queue length does an incoming req see (Count)
system.mem_ctrl.wrQLenPdf::17                     724                       # What write queue length does an incoming req see (Count)
system.mem_ctrl.wrQLenPdf::18                     724                       # What write queue length does an incoming req see (Count)
system.mem_ctrl.wrQLenPdf::19                     724                       # What write queue length does an incoming req see (Count)
system.mem_ctrl.wrQLenPdf::20                     724                       # What write queue length does an incoming req see (Count)
system.mem_ctrl.wrQLenPdf::21                     724                       # What write queue length does an incoming req see (Count)
system.mem_ctrl.wrQLenPdf::22                     724                       # What write queue length does an incoming req see (Count)
system.mem_ctrl.wrQLenPdf::23                     724                       # What write queue length does an incoming req see (Count)
system.mem_ctrl.wrQLenPdf::24                     724                       # What write queue length does an incoming req see (Count)
system.mem_ctrl.wrQLenPdf::25                     724                       # What write queue length does an incoming req see (Count)
system.mem_ctrl.wrQLenPdf::26                     723                       # What write queue length does an incoming req see (Count)
system.mem_ctrl.wrQLenPdf::27                     723                       # What write queue length does an incoming req see (Count)
system.mem_ctrl.wrQLenPdf::28                     723                       # What write queue length does an incoming req see (Count)
system.mem_ctrl.wrQLenPdf::29                     723                       # What write queue length does an incoming req see (Count)
system.mem_ctrl.wrQLenPdf::30                     723                       # What write queue length does an incoming req see (Count)
system.mem_ctrl.wrQLenPdf::31                     723                       # What write queue length does an incoming req see (Count)
system.mem_ctrl.wrQLenPdf::32                     723                       # What write queue length does an incoming req see (Count)
system.mem_ctrl.wrQLenPdf::33                       0                       # What write queue length does an incoming req see (Count)
system.mem_ctrl.wrQLenPdf::34                       0                       # What write queue length does an incoming req see (Count)
system.mem_ctrl.wrQLenPdf::35                       0                       # What write queue length does an incoming req see (Count)
system.mem_ctrl.wrQLenPdf::36                       0                       # What write queue length does an incoming req see (Count)
system.mem_ctrl.wrQLenPdf::37                       0                       # What write queue length does an incoming req see (Count)
system.mem_ctrl.wrQLenPdf::38                       0                       # What write queue length does an incoming req see (Count)
system.mem_ctrl.wrQLenPdf::39                       0                       # What write queue length does an incoming req see (Count)
system.mem_ctrl.wrQLenPdf::40                       0                       # What write queue length does an incoming req see (Count)
system.mem_ctrl.wrQLenPdf::41                       0                       # What write queue length does an incoming req see (Count)
system.mem_ctrl.wrQLenPdf::42                       0                       # What write queue length does an incoming req see (Count)
system.mem_ctrl.wrQLenPdf::43                       0                       # What write queue length does an incoming req see (Count)
system.mem_ctrl.wrQLenPdf::44                       0                       # What write queue length does an incoming req see (Count)
system.mem_ctrl.wrQLenPdf::45                       0                       # What write queue length does an incoming req see (Count)
system.mem_ctrl.wrQLenPdf::46                       0                       # What write queue length does an incoming req see (Count)
system.mem_ctrl.wrQLenPdf::47                       0                       # What write queue length does an incoming req see (Count)
system.mem_ctrl.wrQLenPdf::48                       0                       # What write queue length does an incoming req see (Count)
system.mem_ctrl.wrQLenPdf::49                       0                       # What write queue length does an incoming req see (Count)
system.mem_ctrl.wrQLenPdf::50                       0                       # What write queue length does an incoming req see (Count)
system.mem_ctrl.wrQLenPdf::51                       0                       # What write queue length does an incoming req see (Count)
system.mem_ctrl.wrQLenPdf::52                       0                       # What write queue length does an incoming req see (Count)
system.mem_ctrl.wrQLenPdf::53                       0                       # What write queue length does an incoming req see (Count)
system.mem_ctrl.wrQLenPdf::54                       0                       # What write queue length does an incoming req see (Count)
system.mem_ctrl.wrQLenPdf::55                       0                       # What write queue length does an incoming req see (Count)
system.mem_ctrl.wrQLenPdf::56                       0                       # What write queue length does an incoming req see (Count)
system.mem_ctrl.wrQLenPdf::57                       0                       # What write queue length does an incoming req see (Count)
system.mem_ctrl.wrQLenPdf::58                       0                       # What write queue length does an incoming req see (Count)
system.mem_ctrl.wrQLenPdf::59                       0                       # What write queue length does an incoming req see (Count)
system.mem_ctrl.wrQLenPdf::60                       0                       # What write queue length does an incoming req see (Count)
system.mem_ctrl.wrQLenPdf::61                       0                       # What write queue length does an incoming req see (Count)
system.mem_ctrl.wrQLenPdf::62                       0                       # What write queue length does an incoming req see (Count)
system.mem_ctrl.wrQLenPdf::63                       0                       # What write queue length does an incoming req see (Count)
system.mem_ctrl.rdPerTurnAround::samples          723                       # Reads before turning the bus around for writes (Count)
system.mem_ctrl.rdPerTurnAround::mean     2932.500692                       # Reads before turning the bus around for writes (Count)
system.mem_ctrl.rdPerTurnAround::gmean      42.915954                       # Reads before turning the bus around for writes (Count)
system.mem_ctrl.rdPerTurnAround::stdev    6580.752414                       # Reads before turning the bus around for writes (Count)
system.mem_ctrl.rdPerTurnAround::0-1023           604     83.54%     83.54% # Reads before turning the bus around for writes (Count)
system.mem_ctrl.rdPerTurnAround::1024-2047            1      0.14%     83.68% # Reads before turning the bus around for writes (Count)
system.mem_ctrl.rdPerTurnAround::13312-14335            1      0.14%     83.82% # Reads before turning the bus around for writes (Count)
system.mem_ctrl.rdPerTurnAround::14336-15359            6      0.83%     84.65% # Reads before turning the bus around for writes (Count)
system.mem_ctrl.rdPerTurnAround::15360-16383            7      0.97%     85.62% # Reads before turning the bus around for writes (Count)
system.mem_ctrl.rdPerTurnAround::16384-17407           14      1.94%     87.55% # Reads before turning the bus around for writes (Count)
system.mem_ctrl.rdPerTurnAround::17408-18431           31      4.29%     91.84% # Reads before turning the bus around for writes (Count)
system.mem_ctrl.rdPerTurnAround::18432-19455           51      7.05%     98.89% # Reads before turning the bus around for writes (Count)
system.mem_ctrl.rdPerTurnAround::19456-20479            8      1.11%    100.00% # Reads before turning the bus around for writes (Count)
system.mem_ctrl.rdPerTurnAround::total            723                       # Reads before turning the bus around for writes (Count)
system.mem_ctrl.wrPerTurnAround::samples          723                       # Writes before turning the bus around for reads (Count)
system.mem_ctrl.wrPerTurnAround::mean       17.427386                       # Writes before turning the bus around for reads (Count)
system.mem_ctrl.wrPerTurnAround::gmean      17.403206                       # Writes before turning the bus around for reads (Count)
system.mem_ctrl.wrPerTurnAround::stdev       0.903163                       # Writes before turning the bus around for reads (Count)
system.mem_ctrl.wrPerTurnAround::16               206     28.49%     28.49% # Writes before turning the bus around for reads (Count)
system.mem_ctrl.wrPerTurnAround::17                 2      0.28%     28.77% # Writes before turning the bus around for reads (Count)
system.mem_ctrl.wrPerTurnAround::18               515     71.23%    100.00% # Writes before turning the bus around for reads (Count)
system.mem_ctrl.wrPerTurnAround::total            723                       # Writes before turning the bus around for reads (Count)
system.mem_ctrl.bytesReadWrQ                  3042880                       # Total number of bytes read from write queue (Byte)
system.mem_ctrl.bytesReadSys                139401856                       # Total read bytes from the system interface side (Byte)
system.mem_ctrl.bytesWrittenSys               3580480                       # Total written bytes from the system interface side (Byte)
system.mem_ctrl.avgRdBWSys               319904389.42403924                       # Average system read bandwidth in Byte/s ((Byte/Second))
system.mem_ctrl.avgWrBWSys               8216614.19088268                       # Average system write bandwidth in Byte/s ((Byte/Second))
system.mem_ctrl.totGap                   435760937000                       # Total gap between requests (Tick)
system.mem_ctrl.avgGap                      195049.97                       # Average gap between requests ((Tick/Count))
system.mem_ctrl.requestorReadBytes::cpu.inst        33920                       # Per-requestor bytes read from memory (Byte)
system.mem_ctrl.requestorReadBytes::cpu.data    136325056                       # Per-requestor bytes read from memory (Byte)
system.mem_ctrl.requestorWriteBytes::writebacks       806400                       # Per-requestor bytes write to memory (Byte)
system.mem_ctrl.requestorReadRate::cpu.inst 77840.835126782040                       # Per-requestor bytes read from memory rate ((Byte/Second))
system.mem_ctrl.requestorReadRate::cpu.data 312843638.200039207935                       # Per-requestor bytes read from memory rate ((Byte/Second))
system.mem_ctrl.requestorWriteRate::writebacks 1850555.703014063649                       # Per-requestor bytes write to memory rate ((Byte/Second))
system.mem_ctrl.requestorReadAccesses::cpu.inst          530                       # Per-requestor read serviced memory accesses (Count)
system.mem_ctrl.requestorReadAccesses::cpu.data      2177624                       # Per-requestor read serviced memory accesses (Count)
system.mem_ctrl.requestorWriteAccesses::writebacks        55945                       # Per-requestor write serviced memory accesses (Count)
system.mem_ctrl.requestorReadTotalLat::cpu.inst     13552750                       # Per-requestor read total memory access latency (Tick)
system.mem_ctrl.requestorReadTotalLat::cpu.data  53834562000                       # Per-requestor read total memory access latency (Tick)
system.mem_ctrl.requestorWriteTotalLat::writebacks 10224468603250                       # Per-requestor write total memory access latency (Tick)
system.mem_ctrl.requestorReadAvgLat::cpu.inst     25571.23                       # Per-requestor read average memory access latency ((Tick/Count))
system.mem_ctrl.requestorReadAvgLat::cpu.data     24721.70                       # Per-requestor read average memory access latency ((Tick/Count))
system.mem_ctrl.requestorWriteAvgLat::writebacks 182759292.22                       # Per-requestor write average memory access latency ((Tick/Count))
system.mem_ctrl.dram.bytesRead::cpu.inst        33920                       # Number of bytes read from this memory (Byte)
system.mem_ctrl.dram.bytesRead::cpu.data    139367936                       # Number of bytes read from this memory (Byte)
system.mem_ctrl.dram.bytesRead::total       139401856                       # Number of bytes read from this memory (Byte)
system.mem_ctrl.dram.bytesInstRead::cpu.inst        33920                       # Number of instructions bytes read from this memory (Byte)
system.mem_ctrl.dram.bytesInstRead::total        33920                       # Number of instructions bytes read from this memory (Byte)
system.mem_ctrl.dram.bytesWritten::writebacks      3580480                       # Number of bytes written to this memory (Byte)
system.mem_ctrl.dram.bytesWritten::total      3580480                       # Number of bytes written to this memory (Byte)
system.mem_ctrl.dram.numReads::cpu.inst           530                       # Number of read requests responded to by this memory (Count)
system.mem_ctrl.dram.numReads::cpu.data       2177624                       # Number of read requests responded to by this memory (Count)
system.mem_ctrl.dram.numReads::total          2178154                       # Number of read requests responded to by this memory (Count)
system.mem_ctrl.dram.numWrites::writebacks        55945                       # Number of write requests responded to by this memory (Count)
system.mem_ctrl.dram.numWrites::total           55945                       # Number of write requests responded to by this memory (Count)
system.mem_ctrl.dram.bwRead::cpu.inst           77841                       # Total read bandwidth from this memory ((Byte/Second))
system.mem_ctrl.dram.bwRead::cpu.data       319826549                       # Total read bandwidth from this memory ((Byte/Second))
system.mem_ctrl.dram.bwRead::total          319904389                       # Total read bandwidth from this memory ((Byte/Second))
system.mem_ctrl.dram.bwInstRead::cpu.inst        77841                       # Instruction read bandwidth from this memory ((Byte/Second))
system.mem_ctrl.dram.bwInstRead::total          77841                       # Instruction read bandwidth from this memory ((Byte/Second))
system.mem_ctrl.dram.bwWrite::writebacks      8216614                       # Write bandwidth from this memory ((Byte/Second))
system.mem_ctrl.dram.bwWrite::total           8216614                       # Write bandwidth from this memory ((Byte/Second))
system.mem_ctrl.dram.bwTotal::writebacks      8216614                       # Total bandwidth to/from this memory ((Byte/Second))
system.mem_ctrl.dram.bwTotal::cpu.inst          77841                       # Total bandwidth to/from this memory ((Byte/Second))
system.mem_ctrl.dram.bwTotal::cpu.data      319826549                       # Total bandwidth to/from this memory ((Byte/Second))
system.mem_ctrl.dram.bwTotal::total         328121004                       # Total bandwidth to/from this memory ((Byte/Second))
system.mem_ctrl.dram.readBursts               2130609                       # Number of DRAM read bursts (Count)
system.mem_ctrl.dram.writeBursts                12600                       # Number of DRAM write bursts (Count)
system.mem_ctrl.dram.perBankRdBursts::0        133233                       # Per bank write bursts (Count)    
system.mem_ctrl.dram.perBankRdBursts::1        133316                       # Per bank write bursts (Count)    
system.mem_ctrl.dram.perBankRdBursts::2        133139                       # Per bank write bursts (Count)    
system.mem_ctrl.dram.perBankRdBursts::3        133109                       # Per bank write bursts (Count)    
system.mem_ctrl.dram.perBankRdBursts::4        133198                       # Per bank write bursts (Count)    
system.mem_ctrl.dram.perBankRdBursts::5        133230                       # Per bank write bursts (Count)    
system.mem_ctrl.dram.perBankRdBursts::6        133081                       # Per bank write bursts (Count)    
system.mem_ctrl.dram.perBankRdBursts::7        133057                       # Per bank write bursts (Count)    
system.mem_ctrl.dram.perBankRdBursts::8        133121                       # Per bank write bursts (Count)    
system.mem_ctrl.dram.perBankRdBursts::9        133140                       # Per bank write bursts (Count)    
system.mem_ctrl.dram.perBankRdBursts::10       133120                       # Per bank write bursts (Count)    
system.mem_ctrl.dram.perBankRdBursts::11       133103                       # Per bank write bursts (Count)    
system.mem_ctrl.dram.perBankRdBursts::12       133074                       # Per bank write bursts (Count)    
system.mem_ctrl.dram.perBankRdBursts::13       133230                       # Per bank write bursts (Count)    
system.mem_ctrl.dram.perBankRdBursts::14       133237                       # Per bank write bursts (Count)    
system.mem_ctrl.dram.perBankRdBursts::15       133221                       # Per bank write bursts (Count)    
system.mem_ctrl.dram.perBankWrBursts::0           772                       # Per bank write bursts (Count)    
system.mem_ctrl.dram.perBankWrBursts::1           796                       # Per bank write bursts (Count)    
system.mem_ctrl.dram.perBankWrBursts::2           773                       # Per bank write bursts (Count)    
system.mem_ctrl.dram.perBankWrBursts::3           789                       # Per bank write bursts (Count)    
system.mem_ctrl.dram.perBankWrBursts::4           824                       # Per bank write bursts (Count)    
system.mem_ctrl.dram.perBankWrBursts::5           808                       # Per bank write bursts (Count)    
system.mem_ctrl.dram.perBankWrBursts::6           798                       # Per bank write bursts (Count)    
system.mem_ctrl.dram.perBankWrBursts::7           771                       # Per bank write bursts (Count)    
system.mem_ctrl.dram.perBankWrBursts::8           810                       # Per bank write bursts (Count)    
system.mem_ctrl.dram.perBankWrBursts::9           782                       # Per bank write bursts (Count)    
system.mem_ctrl.dram.perBankWrBursts::10          795                       # Per bank write bursts (Count)    
system.mem_ctrl.dram.perBankWrBursts::11          802                       # Per bank write bursts (Count)    
system.mem_ctrl.dram.perBankWrBursts::12          772                       # Per bank write bursts (Count)    
system.mem_ctrl.dram.perBankWrBursts::13          768                       # Per bank write bursts (Count)    
system.mem_ctrl.dram.perBankWrBursts::14          770                       # Per bank write bursts (Count)    
system.mem_ctrl.dram.perBankWrBursts::15          770                       # Per bank write bursts (Count)    
system.mem_ctrl.dram.totQLat              13899196000                       # Total ticks spent queuing (Tick) 
system.mem_ctrl.dram.totBusLat            10653045000                       # Total ticks spent in databus transfers (Tick)
system.mem_ctrl.dram.totMemAccLat         53848114750                       # Total ticks spent from burst creation until serviced by the DRAM (Tick)
system.mem_ctrl.dram.avgQLat                  6523.58                       # Average queueing delay per DRAM burst ((Tick/Count))
system.mem_ctrl.dram.avgBusLat                5000.00                       # Average bus latency per DRAM burst ((Tick/Count))
system.mem_ctrl.dram.avgMemAccLat            25273.58                       # Average memory access latency per DRAM burst ((Tick/Count))
system.mem_ctrl.dram.readRowHits              1776359                       # Number of row buffer hits during reads (Count)
system.mem_ctrl.dram.writeRowHits               11253                       # Number of row buffer hits during writes (Count)
system.mem_ctrl.dram.readRowHitRate             83.37                       # Row buffer hit rate for reads (Ratio)
system.mem_ctrl.dram.writeRowHitRate            89.31                       # Row buffer hit rate for writes (Ratio)
system.mem_ctrl.dram.bytesPerActivate::samples       355594                       # Bytes accessed per row activation (Byte)
system.mem_ctrl.dram.bytesPerActivate::mean   385.732313                       # Bytes accessed per row activation (Byte)
system.mem_ctrl.dram.bytesPerActivate::gmean   314.623222                       # Bytes accessed per row activation (Byte)
system.mem_ctrl.dram.bytesPerActivate::stdev   175.028642                       # Bytes accessed per row activation (Byte)
system.mem_ctrl.dram.bytesPerActivate::0-127        53859     15.15%     15.15% # Bytes accessed per row activation (Byte)
system.mem_ctrl.dram.bytesPerActivate::128-255        30510      8.58%     23.73% # Bytes accessed per row activation (Byte)
system.mem_ctrl.dram.bytesPerActivate::256-383        28512      8.02%     31.74% # Bytes accessed per row activation (Byte)
system.mem_ctrl.dram.bytesPerActivate::384-511        42952     12.08%     43.82% # Bytes accessed per row activation (Byte)
system.mem_ctrl.dram.bytesPerActivate::512-639       199327     56.05%     99.88% # Bytes accessed per row activation (Byte)
system.mem_ctrl.dram.bytesPerActivate::640-767          230      0.06%     99.94% # Bytes accessed per row activation (Byte)
system.mem_ctrl.dram.bytesPerActivate::768-895           81      0.02%     99.97% # Bytes accessed per row activation (Byte)
system.mem_ctrl.dram.bytesPerActivate::896-1023           17      0.00%     99.97% # Bytes accessed per row activation (Byte)
system.mem_ctrl.dram.bytesPerActivate::1024-1151          106      0.03%    100.00% # Bytes accessed per row activation (Byte)
system.mem_ctrl.dram.bytesPerActivate::total       355594                       # Bytes accessed per row activation (Byte)
system.mem_ctrl.dram.bytesRead              136358976                       # Total bytes read (Byte)
system.mem_ctrl.dram.bytesWritten              806400                       # Total bytes written (Byte)       
system.mem_ctrl.dram.avgRdBW               312.921479                       # Average DRAM read bandwidth in MiBytes/s ((Byte/Second))
system.mem_ctrl.dram.avgWrBW                 1.850556                       # Average DRAM write bandwidth in MiBytes/s ((Byte/Second))
system.mem_ctrl.dram.peakBW                  12800.00                       # Theoretical peak bandwidth in MiByte/s ((Byte/Second))
system.mem_ctrl.dram.busUtil                     2.46                       # Data bus utilization in percentage (Ratio)
system.mem_ctrl.dram.busUtilRead                 2.44                       # Data bus utilization in percentage for reads (Ratio)
system.mem_ctrl.dram.busUtilWrite                0.01                       # Data bus utilization in percentage for writes (Ratio)
system.mem_ctrl.dram.pageHitRate                83.41                       # Row buffer hit rate, read and write combined (Ratio)
system.mem_ctrl.dram.power_state.pwrStateResidencyTicks::UNDEFINED 435760998000                       # Cumulative time (in ticks) in various power states (Tick)
system.mem_ctrl.dram.rank0.actEnergy       1323213360                       # Energy for activate commands per rank (pJ) (Joule)
system.mem_ctrl.dram.rank0.preEnergy        703296990                       # Energy for precharge commands per rank (pJ) (Joule)
system.mem_ctrl.dram.rank0.readEnergy      7606691820                       # Energy for read commands per rank (pJ) (Joule)
system.mem_ctrl.dram.rank0.writeEnergy       33047820                       # Energy for write commands per rank (pJ) (Joule)
system.mem_ctrl.dram.rank0.refreshEnergy 34398327600.000008                       # Energy for refresh commands per rank (pJ) (Joule)
system.mem_ctrl.dram.rank0.actBackEnergy 136172342790                       # Energy for active background per rank (pJ) (Joule)
system.mem_ctrl.dram.rank0.preBackEnergy  52660776960                       # Energy for precharge background per rank (pJ) (Joule)
system.mem_ctrl.dram.rank0.actPowerDownEnergy            0                       # Energy for active power-down per rank (pJ) (Joule)
system.mem_ctrl.dram.rank0.prePowerDownEnergy            0                       # Energy for precharge power-down per rank (pJ) (Joule)
system.mem_ctrl.dram.rank0.selfRefreshEnergy            0                       # Energy for self refresh per rank (pJ) (Joule)
system.mem_ctrl.dram.rank0.totalEnergy   232897697340                       # Total energy per rank (pJ) (Joule)
system.mem_ctrl.dram.rank0.averagePower    534.462006                       # Core power per rank (mW) (Watt)  
system.mem_ctrl.dram.rank0.totalIdleTime            0                       # Total Idle time Per DRAM Rank (Tick)
system.mem_ctrl.dram.rank0.pwrStateTime::IDLE 135654699750                       # Time in different power states (Tick)
system.mem_ctrl.dram.rank0.pwrStateTime::REF  14550900000                       # Time in different power states (Tick)
system.mem_ctrl.dram.rank0.pwrStateTime::SREF            0                       # Time in different power states (Tick)
system.mem_ctrl.dram.rank0.pwrStateTime::PRE_PDN            0                       # Time in different power states (Tick)
system.mem_ctrl.dram.rank0.pwrStateTime::ACT 285555398250                       # Time in different power states (Tick)
system.mem_ctrl.dram.rank0.pwrStateTime::ACT_PDN            0                       # Time in different power states (Tick)
system.mem_ctrl.dram.rank1.actEnergy       1215749220                       # Energy for activate commands per rank (pJ) (Joule)
system.mem_ctrl.dram.rank1.preEnergy        646182240                       # Energy for precharge commands per rank (pJ) (Joule)
system.mem_ctrl.dram.rank1.readEnergy      7605856440                       # Energy for read commands per rank (pJ) (Joule)
system.mem_ctrl.dram.rank1.writeEnergy       32724180                       # Energy for write commands per rank (pJ) (Joule)
system.mem_ctrl.dram.rank1.refreshEnergy 34398327600.000008                       # Energy for refresh commands per rank (pJ) (Joule)
system.mem_ctrl.dram.rank1.actBackEnergy 135857007960                       # Energy for active background per rank (pJ) (Joule)
system.mem_ctrl.dram.rank1.preBackEnergy  52926322080                       # Energy for precharge background per rank (pJ) (Joule)
system.mem_ctrl.dram.rank1.actPowerDownEnergy            0                       # Energy for active power-down per rank (pJ) (Joule)
system.mem_ctrl.dram.rank1.prePowerDownEnergy            0                       # Energy for precharge power-down per rank (pJ) (Joule)
system.mem_ctrl.dram.rank1.selfRefreshEnergy            0                       # Energy for self refresh per rank (pJ) (Joule)
system.mem_ctrl.dram.rank1.totalEnergy   232682169720                       # Total energy per rank (pJ) (Joule)
system.mem_ctrl.dram.rank1.averagePower    533.967406                       # Core power per rank (mW) (Watt)  
system.mem_ctrl.dram.rank1.totalIdleTime            0                       # Total Idle time Per DRAM Rank (Tick)
system.mem_ctrl.dram.rank1.pwrStateTime::IDLE 136366568000                       # Time in different power states (Tick)
system.mem_ctrl.dram.rank1.pwrStateTime::REF  14550900000                       # Time in different power states (Tick)
system.mem_ctrl.dram.rank1.pwrStateTime::SREF            0                       # Time in different power states (Tick)
system.mem_ctrl.dram.rank1.pwrStateTime::PRE_PDN            0                       # Time in different power states (Tick)
system.mem_ctrl.dram.rank1.pwrStateTime::ACT 284843530000                       # Time in different power states (Tick)
system.mem_ctrl.dram.rank1.pwrStateTime::ACT_PDN            0                       # Time in different power states (Tick)
system.mem_ctrl.power_state.pwrStateResidencyTicks::UNDEFINED 435760998000                       # Cumulative time (in ticks) in various power states (Tick)
system.membus.transDist::ReadResp             2124317                       # Transaction distribution (Count) 
system.membus.transDist::WritebackDirty         55945                       # Transaction distribution (Count) 
system.membus.transDist::CleanEvict           2120936                       # Transaction distribution (Count) 
system.membus.transDist::ReadExReq              53837                       # Transaction distribution (Count) 
system.membus.transDist::ReadExResp             53837                       # Transaction distribution (Count) 
system.membus.transDist::ReadSharedReq        2124317                       # Transaction distribution (Count) 
system.membus.pktCount_system.cpu.icache.mem_side_port::system.mem_ctrl.port         1341                      
 # Packet count per connected requestor and responder (Count)
system.membus.pktCount_system.cpu.icache.mem_side_port::total         1341                       # Packet count per connected requestor and responder (Count)
system.membus.pktCount_system.cpu.dcache.mem_side_port::system.mem_ctrl.port      6531848                      
 # Packet count per connected requestor and responder (Count)
system.membus.pktCount_system.cpu.dcache.mem_side_port::total      6531848                       # Packet count per connected requestor and responder (Count)
system.membus.pktCount::total                 6533189                       # Packet count per connected requestor and responder (Count)
system.membus.pktSize_system.cpu.icache.mem_side_port::system.mem_ctrl.port        33920                       
# Cumulative packet size per connected requestor and responder (Byte)
system.membus.pktSize_system.cpu.icache.mem_side_port::total        33920                       # Cumulative packet size per connected requestor and responder (Byte)
system.membus.pktSize_system.cpu.dcache.mem_side_port::system.mem_ctrl.port    142948416                       
# Cumulative packet size per connected requestor and responder (Byte)
system.membus.pktSize_system.cpu.dcache.mem_side_port::total    142948416                       # Cumulative packet size per connected requestor and responder (Byte)
system.membus.pktSize::total                142982336                       # Cumulative packet size per connected requestor and responder (Byte)
system.membus.snoops                                0                       # Total snoops (Count)
system.membus.snoopTraffic                          0                       # Total snoop traffic (Byte)       
system.membus.snoopFanout::samples            2178154                       # Request fanout histogram (Count) 
system.membus.snoopFanout::mean                     0                       # Request fanout histogram (Count) 
system.membus.snoopFanout::stdev                    0                       # Request fanout histogram (Count) 
system.membus.snoopFanout::underflows               0      0.00%      0.00% # Request fanout histogram (Count) 
system.membus.snoopFanout::0                  2178154    100.00%    100.00% # Request fanout histogram (Count) 
system.membus.snoopFanout::1                        0      0.00%    100.00% # Request fanout histogram (Count) 
system.membus.snoopFanout::2                        0      0.00%    100.00% # Request fanout histogram (Count) 
system.membus.snoopFanout::overflows                0      0.00%    100.00% # Request fanout histogram (Count) 
system.membus.snoopFanout::min_value                0                       # Request fanout histogram (Count) 
system.membus.snoopFanout::max_value                0                       # Request fanout histogram (Count) 
system.membus.snoopFanout::total              2178154                       # Request fanout histogram (Count) 
system.membus.power_state.pwrStateResidencyTicks::UNDEFINED 435760998000                       # Cumulative time (in ticks) in various power states (Tick)
system.membus.reqLayer2.occupancy          4578815000                       # Layer occupancy (ticks) (Tick)   
system.membus.reqLayer2.utilization               0.0                       # Layer utilization (Ratio)        
system.membus.respLayer0.occupancy            2821250                       # Layer occupancy (ticks) (Tick)   
system.membus.respLayer0.utilization              0.0                       # Layer utilization (Ratio)        
system.membus.respLayer1.occupancy        11510665000                       # Layer occupancy (ticks) (Tick)   
system.membus.respLayer1.utilization              0.0                       # Layer utilization (Ratio)        
system.membus.snoop_filter.totRequests        4355035                       # Total number of requests made to the snoop filter. (Count)
system.membus.snoop_filter.hitSingleRequests      2176881                       # Number of requests hitting in the snoop filter with a single holder of the requested data. (Count)
system.membus.snoop_filter.hitMultiRequests            0                       # Number of requests hitting in the snoop filter with multiple (>1) holders of the requested data. (Count)
system.membus.snoop_filter.totSnoops                0                       # Total number of snoops made to the snoop filter. (Count)
system.membus.snoop_filter.hitSingleSnoops            0                       # Number of snoops hitting in the snoop filter with a single holder of the requested data. (Count)
system.membus.snoop_filter.hitMultiSnoops            0                       # Number of snoops hitting in the snoop filter with multiple (>1) holders of the requested data. (Count)
system.workload.inst.arm                            0                       # number of arm instructions executed (Count)
system.workload.inst.quiesce                        0                       # number of quiesce instructions executed (Count)

---------- End Simulation Statistics   ----------