---------- Begin Simulation Statistics ----------
simSeconds                                   0.365639                       # Number of seconds simulated (Second)
simTicks                                 365639002000                       # Number of ticks simulated (Tick)
finalTick                                365639002000                       # Number of ticks from beginning of simulation (restored from checkpoints and never reset) (Tick)
simFreq                                  1000000000000                       # The number of ticks per simulated second ((Tick/Second))
hostSeconds                                    131.42                       # Real time elapsed on the host (Second)
hostTickRate                               2782232471                       # The number of ticks simulated per host second (ticks/s) ((Tick/Second))
hostMemory                                     687864                       # Number of bytes of host memory used (Byte)
simInsts                                     88767643                       # Number of instructions simulated (Count)
simOps                                      120776373                       # Number of ops (including micro ops) simulated (Count)
hostInstRate                                   675453                       # Simulator instruction rate (inst/s) ((Count/Second))
hostOpRate                                     919014                       # Simulator op (including micro ops) rate (op/s) ((Count/Second))
system.clk_domain.clock                          1000                       # Clock period in ticks (Tick)     
system.clk_domain.voltage_domain.voltage            1                       # Voltage in Volts (Volt)
system.cpu.numCycles                        365639002                       # Number of cpu cycles simulated (Cycle)
system.cpu.cpi                               4.119057                       # CPI: cycles per instruction (core level) ((Cycle/Count))
system.cpu.ipc                               0.242774                       # IPC: instructions per cycle (core level) ((Count/Cycle))
system.cpu.numWorkItemsStarted                      0                       # Number of work items this cpu started (Count)
system.cpu.numWorkItemsCompleted                    0                       # Number of work items this cpu completed (Count)
system.cpu.commitStats0.numInsts             88767658                       # Number of instructions committed (thread level) (Count)
system.cpu.commitStats0.numOps              120776390                       # Number of ops (including micro ops) committed (thread level) (Count)
system.cpu.commitStats0.numInstsNotNOP              0                       # Number of instructions committed excluding NOPs or prefetches (Count)
system.cpu.commitStats0.numOpsNotNOP                0                       # Number of Ops (including micro ops) Simulated (Count)
system.cpu.commitStats0.cpi                  4.119057                       # CPI: cycles per instruction (thread level) ((Cycle/Count))
system.cpu.commitStats0.ipc                  0.242774                       # IPC: instructions per cycle (thread level) ((Count/Cycle))
system.cpu.commitStats0.numMemRefs                  0                       # Number of memory references committed (Count)
system.cpu.commitStats0.numFpInsts           19187116                       # Number of float instructions (Count)
system.cpu.commitStats0.numIntInsts         109863510                       # Number of integer instructions (Count)
system.cpu.commitStats0.numLoadInsts         28085662                       # Number of load instructions (Count)
system.cpu.commitStats0.numStoreInsts         4696845                       # Number of store instructions (Count)
system.cpu.commitStats0.numVecInsts                 0                       # Number of vector instructions (Count)
system.cpu.commitStats0.committedInstType::No_OpClass        98565      0.08%      0.08% # Class of committed instruction. (Count)
system.cpu.commitStats0.committedInstType::IntAlu     77179447     63.90%     63.98% # Class of committed instruction. (Count)
system.cpu.commitStats0.committedInstType::IntMult           41      0.00%     63.98% # Class of committed instruction. (Count)
system.cpu.commitStats0.committedInstType::IntDiv           21      0.00%     63.98% # Class of committed instruction. (Count)
system.cpu.commitStats0.committedInstType::FloatAdd      6324370      5.24%     69.22% # Class of committed instruction. (Count)
system.cpu.commitStats0.committedInstType::FloatCmp            0      0.00%     69.22% # Class of committed instruction. (Count)
system.cpu.commitStats0.committedInstType::FloatCvt            0      0.00%     69.22% # Class of committed instruction. (Count)
system.cpu.commitStats0.committedInstType::FloatMult            0      0.00%     69.22% # Class of committed instruction. (Count)
system.cpu.commitStats0.committedInstType::FloatMultAcc            0      0.00%     69.22% # Class of committed instruction. (Count)
system.cpu.commitStats0.committedInstType::FloatDiv            0      0.00%     69.22% # Class of committed instruction. (Count)
system.cpu.commitStats0.committedInstType::FloatMisc            0      0.00%     69.22% # Class of committed instruction. (Count)
system.cpu.commitStats0.committedInstType::FloatSqrt            0      0.00%     69.22% # Class of committed instruction. (Count)
system.cpu.commitStats0.committedInstType::SimdAdd           10      0.00%     69.22% # Class of committed instruction. (Count)
system.cpu.commitStats0.committedInstType::SimdAddAcc            0      0.00%     69.22% # Class of committed instruction. (Count)
system.cpu.commitStats0.committedInstType::SimdAlu        98531      0.08%     69.30% # Class of committed instruction. (Count)
system.cpu.commitStats0.committedInstType::SimdCmp            0      0.00%     69.30% # Class of committed instruction. (Count)
system.cpu.commitStats0.committedInstType::SimdCvt           66      0.00%     69.30% # Class of committed instruction. (Count)
system.cpu.commitStats0.committedInstType::SimdMisc        32989      0.03%     69.33% # Class of committed instruction. (Count)
system.cpu.commitStats0.committedInstType::SimdMult            0      0.00%     69.33% # Class of committed instruction. (Count)
system.cpu.commitStats0.committedInstType::SimdMultAcc            0      0.00%     69.33% # Class of committed instruction. (Count)
system.cpu.commitStats0.committedInstType::SimdMatMultAcc            0      0.00%     69.33% # Class of committed instruction. (Count)
system.cpu.commitStats0.committedInstType::SimdShift            3      0.00%     69.33% # Class of committed instruction. (Count)
system.cpu.commitStats0.committedInstType::SimdShiftAcc            0      0.00%     69.33% # Class of committed instruction. (Count)
system.cpu.commitStats0.committedInstType::SimdDiv            0      0.00%     69.33% # Class of committed instruction. (Count)
system.cpu.commitStats0.committedInstType::SimdSqrt            0      0.00%     69.33% # Class of committed instruction. (Count)
system.cpu.commitStats0.committedInstType::SimdFloatAdd      2097152      1.74%     71.07% # Class of committed instruction. (Count)
system.cpu.commitStats0.committedInstType::SimdFloatAlu            0      0.00%     71.07% # Class of committed instruction. (Count)
system.cpu.commitStats0.committedInstType::SimdFloatCmp            0      0.00%     71.07% # Class of committed instruction. (Count)
system.cpu.commitStats0.committedInstType::SimdFloatCvt        32768      0.03%     71.09% # Class of committed instruction. (Count)
system.cpu.commitStats0.committedInstType::SimdFloatDiv        32768      0.03%     71.12% # Class of committed instruction. (Count)
system.cpu.commitStats0.committedInstType::SimdFloatMisc            0      0.00%     71.12% # Class of committed instruction. (Count)
system.cpu.commitStats0.committedInstType::SimdFloatMult      2097152      1.74%     72.86% # Class of committed instruction. (Count)
system.cpu.commitStats0.committedInstType::SimdFloatMultAcc            0      0.00%     72.86% # Class of committed instruction. (Count)
system.cpu.commitStats0.committedInstType::SimdFloatMatMultAcc            0      0.00%     72.86% # Class of committed instruction. (Count)
system.cpu.commitStats0.committedInstType::SimdFloatSqrt            0      0.00%     72.86% # Class of committed instruction. (Count)
system.cpu.commitStats0.committedInstType::SimdReduceAdd            0      0.00%     72.86% # Class of committed instruction. (Count)
system.cpu.commitStats0.committedInstType::SimdReduceAlu            0      0.00%     72.86% # Class of committed instruction. (Count)
system.cpu.commitStats0.committedInstType::SimdReduceCmp            0      0.00%     72.86% # Class of committed instruction. (Count)
system.cpu.commitStats0.committedInstType::SimdFloatReduceAdd            0      0.00%     72.86% # Class of committed instruction. (Count)
system.cpu.commitStats0.committedInstType::SimdFloatReduceCmp            0      0.00%     72.86% # Class of committed instruction. (Count)
system.cpu.commitStats0.committedInstType::SimdAes            0      0.00%     72.86% # Class of committed instruction. (Count)
system.cpu.commitStats0.committedInstType::SimdAesMix            0      0.00%     72.86% # Class of committed instruction. (Count)
system.cpu.commitStats0.committedInstType::SimdSha1Hash            0      0.00%     72.86% # Class of committed instruction. (Count)
system.cpu.commitStats0.committedInstType::SimdSha1Hash2            0      0.00%     72.86% # Class of committed instruction. (Count)
system.cpu.commitStats0.committedInstType::SimdSha256Hash            0      0.00%     72.86% # Class of committed instruction. (Count)
system.cpu.commitStats0.committedInstType::SimdSha256Hash2            0      0.00%     72.86% # Class of committed instruction. (Count)
system.cpu.commitStats0.committedInstType::SimdShaSigma2            0      0.00%     72.86% # Class of committed instruction. (Count)
system.cpu.commitStats0.committedInstType::SimdShaSigma3            0      0.00%     72.86% # Class of committed instruction. (Count)
system.cpu.commitStats0.committedInstType::SimdPredAlu            0      0.00%     72.86% # Class of committed instruction. (Count)
system.cpu.commitStats0.committedInstType::Matrix            0      0.00%     72.86% # Class of committed instruction. (Count)
system.cpu.commitStats0.committedInstType::MatrixMov            0      0.00%     72.86% # Class of committed instruction. (Count)
system.cpu.commitStats0.committedInstType::MatrixOP            0      0.00%     72.86% # Class of committed instruction. (Count)
system.cpu.commitStats0.committedInstType::MemRead     21761321     18.02%     90.87% # Class of committed instruction. (Count)
system.cpu.commitStats0.committedInstType::MemWrite      2550026      2.11%     92.99% # Class of committed instruction. (Count)
system.cpu.commitStats0.committedInstType::FloatMemRead      6324341      5.24%     98.22% # Class of committed instruction. (Count)
system.cpu.commitStats0.committedInstType::FloatMemWrite      2146819      1.78%    100.00% # Class of committed instruction. (Count)
system.cpu.commitStats0.committedInstType::IprAccess            0      0.00%    100.00% # Class of committed instruction. (Count)
system.cpu.commitStats0.committedInstType::InstPrefetch            0      0.00%    100.00% # Class of committed instruction. (Count)
system.cpu.commitStats0.committedInstType::VectorUnitStrideLoad            0      0.00%    100.00% # Class of committed instruction. (Count)
system.cpu.commitStats0.committedInstType::VectorUnitStrideStore            0      0.00%    100.00% # Class of committed instruction. (Count)
system.cpu.commitStats0.committedInstType::VectorUnitStrideMaskLoad            0      0.00%    100.00% # Class of committed instruction. (Count)
system.cpu.commitStats0.committedInstType::VectorUnitStrideMaskStore            0      0.00%    100.00% # Class of committed instruction. (Count)
system.cpu.commitStats0.committedInstType::VectorStridedLoad            0      0.00%    100.00% # Class of committed instruction. (Count)
system.cpu.commitStats0.committedInstType::VectorStridedStore            0      0.00%    100.00% # Class of committed instruction. (Count)
system.cpu.commitStats0.committedInstType::VectorIndexedLoad            0      0.00%    100.00% # Class of committed instruction. (Count)
system.cpu.commitStats0.committedInstType::VectorIndexedStore            0      0.00%    100.00% # Class of committed instruction. (Count)
system.cpu.commitStats0.committedInstType::VectorUnitStrideFaultOnlyFirstLoad            0      0.00%    100.00% # Class of committed instruction. (Count)
system.cpu.commitStats0.committedInstType::VectorWholeRegisterLoad            0      0.00%    100.00% # Class of committed instruction. (Count)
system.cpu.commitStats0.committedInstType::VectorWholeRegisterStore            0      0.00%    100.00% # Class of committed instruction. (Count)
system.cpu.commitStats0.committedInstType::VectorIntegerArith            0      0.00%    100.00% # Class of committed instruction. (Count)
system.cpu.commitStats0.committedInstType::VectorFloatArith            0      0.00%    100.00% # Class of committed instruction. (Count)
system.cpu.commitStats0.committedInstType::VectorFloatConvert            0      0.00%    100.00% # Class of committed instruction. (Count)
system.cpu.commitStats0.committedInstType::VectorIntegerReduce            0      0.00%    100.00% # Class of committed instruction. (Count)
system.cpu.commitStats0.committedInstType::VectorFloatReduce            0      0.00%    100.00% # Class of committed instruction. (Count)
system.cpu.commitStats0.committedInstType::VectorMisc            0      0.00%    100.00% # Class of committed instruction. (Count)
system.cpu.commitStats0.committedInstType::VectorIntegerExtension            0      0.00%    100.00% # Class of committed instruction. (Count)
system.cpu.commitStats0.committedInstType::VectorConfig            0      0.00%    100.00% # Class of committed instruction. (Count)
system.cpu.commitStats0.committedInstType::total    120776390                       # Class of committed instruction. (Count)
system.cpu.commitStats0.committedControl::IsControl      2655263                       # Class of control type instructions committed (Count)
system.cpu.commitStats0.committedControl::IsDirectControl      2552447                       # Class of control type instructions committed (Count)
system.cpu.commitStats0.committedControl::IsIndirectControl       102816                       # Class of control type instructions committed (Count)
system.cpu.commitStats0.committedControl::IsCondControl      2430812                       # Class of control type instructions committed (Count)
system.cpu.commitStats0.committedControl::IsUncondControl       224451                       # Class of control type instructions committed (Count)
system.cpu.commitStats0.committedControl::IsCall       100646                       # Class of control type instructions committed (Count)
system.cpu.commitStats0.committedControl::IsReturn       100641                       # Class of control type instructions committed (Count)
system.cpu.dcache.demandHits::cpu.data       30471747                       # number of demand (read+write) hits (Count)
system.cpu.dcache.demandHits::total          30471747                       # number of demand (read+write) hits (Count)
system.cpu.dcache.overallHits::cpu.data      30471747                       # number of overall hits (Count)   
system.cpu.dcache.overallHits::total         30471747                       # number of overall hits (Count)   
system.cpu.dcache.demandMisses::cpu.data      2179639                       # number of demand (read+write) misses (Count)
system.cpu.dcache.demandMisses::total         2179639                       # number of demand (read+write) misses (Count)
system.cpu.dcache.overallMisses::cpu.data      2179639                       # number of overall misses (Count)
system.cpu.dcache.overallMisses::total        2179639                       # number of overall misses (Count) 
system.cpu.dcache.demandMissLatency::cpu.data  57859968000                       # number of demand (read+write) miss ticks (Tick)
system.cpu.dcache.demandMissLatency::total  57859968000                       # number of demand (read+write) miss ticks (Tick)
system.cpu.dcache.overallMissLatency::cpu.data  57859968000                       # number of overall miss ticks (Tick)
system.cpu.dcache.overallMissLatency::total  57859968000                       # number of overall miss ticks (Tick)
system.cpu.dcache.demandAccesses::cpu.data     32651386                       # number of demand (read+write) accesses (Count)
system.cpu.dcache.demandAccesses::total      32651386                       # number of demand (read+write) accesses (Count)
system.cpu.dcache.overallAccesses::cpu.data     32651386                       # number of overall (read+write) accesses (Count)
system.cpu.dcache.overallAccesses::total     32651386                       # number of overall (read+write) accesses (Count)
system.cpu.dcache.demandMissRate::cpu.data     0.066755                       # miss rate for demand accesses (Ratio)
system.cpu.dcache.demandMissRate::total      0.066755                       # miss rate for demand accesses (Ratio)
system.cpu.dcache.overallMissRate::cpu.data     0.066755                       # miss rate for overall accesses (Ratio)
system.cpu.dcache.overallMissRate::total     0.066755                       # miss rate for overall accesses (Ratio)
system.cpu.dcache.demandAvgMissLatency::cpu.data 26545.665590                       # average overall miss latency in ticks ((Tick/Count))
system.cpu.dcache.demandAvgMissLatency::total 26545.665590                       # average overall miss latency in ticks ((Tick/Count))
system.cpu.dcache.overallAvgMissLatency::cpu.data 26545.665590                       # average overall miss latency ((Tick/Count))
system.cpu.dcache.overallAvgMissLatency::total 26545.665590                       # average overall miss latency ((Tick/Count))
system.cpu.dcache.blockedCycles::no_mshrs            0                       # number of cycles access was blocked (Cycle)
system.cpu.dcache.blockedCycles::no_targets            0                       # number of cycles access was blocked (Cycle)
system.cpu.dcache.blockedCauses::no_mshrs            0                       # number of times access was blocked (Count)
system.cpu.dcache.blockedCauses::no_targets            0                       # number of times access was blocked (Count)
system.cpu.dcache.avgBlocked::no_mshrs            nan                       # average number of cycles each access was blocked ((Cycle/Count))
system.cpu.dcache.avgBlocked::no_targets          nan                       # average number of cycles each access was blocked ((Cycle/Count))
system.cpu.dcache.writebacks::writebacks      2172744                       # number of writebacks (Count)     
system.cpu.dcache.writebacks::total           2172744                       # number of writebacks (Count)     
system.cpu.dcache.demandMshrMisses::cpu.data      2179639                       # number of demand (read+write) MSHR misses (Count)
system.cpu.dcache.demandMshrMisses::total      2179639                       # number of demand (read+write) MSHR misses (Count)
system.cpu.dcache.overallMshrMisses::cpu.data      2179639                       # number of overall MSHR misses (Count)
system.cpu.dcache.overallMshrMisses::total      2179639                       # number of overall MSHR misses (Count)
system.cpu.dcache.demandMshrMissLatency::cpu.data  53500690000                       # number of demand (read+write) MSHR miss ticks (Tick)
system.cpu.dcache.demandMshrMissLatency::total  53500690000                       # number of demand (read+write) MSHR miss ticks (Tick)
system.cpu.dcache.overallMshrMissLatency::cpu.data  53500690000                       # number of overall MSHR miss ticks (Tick)
system.cpu.dcache.overallMshrMissLatency::total  53500690000                       # number of overall MSHR miss ticks (Tick)
system.cpu.dcache.demandMshrMissRate::cpu.data     0.066755                       # mshr miss ratio for demand accesses (Ratio)
system.cpu.dcache.demandMshrMissRate::total     0.066755                       # mshr miss ratio for demand accesses (Ratio)
system.cpu.dcache.overallMshrMissRate::cpu.data     0.066755                       # mshr miss ratio for overall accesses (Ratio)
system.cpu.dcache.overallMshrMissRate::total     0.066755                       # mshr miss ratio for overall accesses (Ratio)
system.cpu.dcache.demandAvgMshrMissLatency::cpu.data 24545.665590                       # average overall mshr miss latency ((Tick/Count))
system.cpu.dcache.demandAvgMshrMissLatency::total 24545.665590                       # average overall mshr miss latency ((Tick/Count))
system.cpu.dcache.overallAvgMshrMissLatency::cpu.data 24545.665590                       # average overall mshr miss latency ((Tick/Count))
system.cpu.dcache.overallAvgMshrMissLatency::total 24545.665590                       # average overall mshr miss latency ((Tick/Count))
system.cpu.dcache.replacements                2176600                       # number of replacements (Count)   
system.cpu.dcache.LockedRMWReadReq.hits::cpu.data        65522                       # number of LockedRMWReadReq hits (Count)
system.cpu.dcache.LockedRMWReadReq.hits::total        65522                       # number of LockedRMWReadReq hits (Count)
system.cpu.dcache.LockedRMWReadReq.misses::cpu.data           38                       # number of LockedRMWReadReq misses (Count)
system.cpu.dcache.LockedRMWReadReq.misses::total           38                       # number of LockedRMWReadReq misses (Count)
system.cpu.dcache.LockedRMWReadReq.missLatency::cpu.data      1197000                       # number of LockedRMWReadReq miss ticks (Tick)
system.cpu.dcache.LockedRMWReadReq.missLatency::total      1197000                       # number of LockedRMWReadReq miss ticks (Tick)
system.cpu.dcache.LockedRMWReadReq.accesses::cpu.data        65560                       # number of LockedRMWReadReq accesses(hits+misses) (Count)
system.cpu.dcache.LockedRMWReadReq.accesses::total        65560                       # number of LockedRMWReadReq accesses(hits+misses) (Count)
system.cpu.dcache.LockedRMWReadReq.missRate::cpu.data     0.000580                       # miss rate for LockedRMWReadReq accesses (Ratio)
system.cpu.dcache.LockedRMWReadReq.missRate::total     0.000580                       # miss rate for LockedRMWReadReq accesses (Ratio)
system.cpu.dcache.LockedRMWReadReq.avgMissLatency::cpu.data        31500                       # average LockedRMWReadReq miss latency ((Tick/Count))
system.cpu.dcache.LockedRMWReadReq.avgMissLatency::total        31500                       # average LockedRMWReadReq miss latency ((Tick/Count))
system.cpu.dcache.LockedRMWReadReq.mshrMisses::cpu.data           38                       # number of LockedRMWReadReq MSHR misses (Count)
system.cpu.dcache.LockedRMWReadReq.mshrMisses::total           38                       # number of LockedRMWReadReq MSHR misses (Count)
system.cpu.dcache.LockedRMWReadReq.mshrMissLatency::cpu.data    133362000                       # number of LockedRMWReadReq MSHR miss ticks (Tick)
system.cpu.dcache.LockedRMWReadReq.mshrMissLatency::total    133362000                       # number of LockedRMWReadReq MSHR miss ticks (Tick)
system.cpu.dcache.LockedRMWReadReq.mshrMissRate::cpu.data     0.000580                       # mshr miss rate for LockedRMWReadReq accesses (Ratio)
system.cpu.dcache.LockedRMWReadReq.mshrMissRate::total     0.000580                       # mshr miss rate for LockedRMWReadReq accesses (Ratio)
system.cpu.dcache.LockedRMWReadReq.avgMshrMissLatency::cpu.data 3509526.315789                       # average LockedRMWReadReq mshr miss latency ((Tick/Count))
system.cpu.dcache.LockedRMWReadReq.avgMshrMissLatency::total 3509526.315789                       # average LockedRMWReadReq mshr miss latency ((Tick/Count))
system.cpu.dcache.LockedRMWWriteReq.hits::cpu.data        65560                       # number of LockedRMWWriteReq hits (Count)
system.cpu.dcache.LockedRMWWriteReq.hits::total        65560                       # number of LockedRMWWriteReq hits (Count)
system.cpu.dcache.LockedRMWWriteReq.accesses::cpu.data        65560                       # number of LockedRMWWriteReq accesses(hits+misses) (Count)
system.cpu.dcache.LockedRMWWriteReq.accesses::total        65560                       # number of LockedRMWWriteReq accesses(hits+misses) (Count)
system.cpu.dcache.ReadReq.hits::cpu.data     25896316                       # number of ReadReq hits (Count)   
system.cpu.dcache.ReadReq.hits::total        25896316                       # number of ReadReq hits (Count)   
system.cpu.dcache.ReadReq.misses::cpu.data      2123787                       # number of ReadReq misses (Count)
system.cpu.dcache.ReadReq.misses::total       2123787                       # number of ReadReq misses (Count) 
system.cpu.dcache.ReadReq.missLatency::cpu.data  55523381000                       # number of ReadReq miss ticks (Tick)
system.cpu.dcache.ReadReq.missLatency::total  55523381000                       # number of ReadReq miss ticks (Tick)
system.cpu.dcache.ReadReq.accesses::cpu.data     28020103                       # number of ReadReq accesses(hits+misses) (Count)
system.cpu.dcache.ReadReq.accesses::total     28020103                       # number of ReadReq accesses(hits+misses) (Count)
system.cpu.dcache.ReadReq.missRate::cpu.data     0.075795                       # miss rate for ReadReq accesses (Ratio)
system.cpu.dcache.ReadReq.missRate::total     0.075795                       # miss rate for ReadReq accesses (Ratio)
system.cpu.dcache.ReadReq.avgMissLatency::cpu.data 26143.573249                       # average ReadReq miss latency ((Tick/Count))
system.cpu.dcache.ReadReq.avgMissLatency::total 26143.573249                       # average ReadReq miss latency ((Tick/Count))
system.cpu.dcache.ReadReq.mshrMisses::cpu.data      2123787                       # number of ReadReq MSHR misses (Count)
system.cpu.dcache.ReadReq.mshrMisses::total      2123787                       # number of ReadReq MSHR misses (Count)
system.cpu.dcache.ReadReq.mshrMissLatency::cpu.data  51275807000                       # number of ReadReq MSHR miss ticks (Tick)
system.cpu.dcache.ReadReq.mshrMissLatency::total  51275807000                       # number of ReadReq MSHR miss ticks (Tick)
system.cpu.dcache.ReadReq.mshrMissRate::cpu.data     0.075795                       # mshr miss rate for ReadReq accesses (Ratio)
system.cpu.dcache.ReadReq.mshrMissRate::total     0.075795                       # mshr miss rate for ReadReq accesses (Ratio)
system.cpu.dcache.ReadReq.avgMshrMissLatency::cpu.data 24143.573249                       # average ReadReq mshr miss latency ((Tick/Count))
system.cpu.dcache.ReadReq.avgMshrMissLatency::total 24143.573249                       # average ReadReq mshr miss latency ((Tick/Count))
system.cpu.dcache.WriteReq.hits::cpu.data      4575431                       # number of WriteReq hits (Count) 
system.cpu.dcache.WriteReq.hits::total        4575431                       # number of WriteReq hits (Count)  
system.cpu.dcache.WriteReq.misses::cpu.data        55852                       # number of WriteReq misses (Count)
system.cpu.dcache.WriteReq.misses::total        55852                       # number of WriteReq misses (Count)
system.cpu.dcache.WriteReq.missLatency::cpu.data   2336587000                       # number of WriteReq miss ticks (Tick)
system.cpu.dcache.WriteReq.missLatency::total   2336587000                       # number of WriteReq miss ticks (Tick)
system.cpu.dcache.WriteReq.accesses::cpu.data      4631283                       # number of WriteReq accesses(hits+misses) (Count)
system.cpu.dcache.WriteReq.accesses::total      4631283                       # number of WriteReq accesses(hits+misses) (Count)
system.cpu.dcache.WriteReq.missRate::cpu.data     0.012060                       # miss rate for WriteReq accesses (Ratio)
system.cpu.dcache.WriteReq.missRate::total     0.012060                       # miss rate for WriteReq accesses (Ratio)
system.cpu.dcache.WriteReq.avgMissLatency::cpu.data 41835.332665                       # average WriteReq miss latency ((Tick/Count))
system.cpu.dcache.WriteReq.avgMissLatency::total 41835.332665                       # average WriteReq miss latency ((Tick/Count))
system.cpu.dcache.WriteReq.mshrMisses::cpu.data        55852                       # number of WriteReq MSHR misses (Count)
system.cpu.dcache.WriteReq.mshrMisses::total        55852                       # number of WriteReq MSHR misses (Count)
system.cpu.dcache.WriteReq.mshrMissLatency::cpu.data   2224883000                       # number of WriteReq MSHR miss ticks (Tick)
system.cpu.dcache.WriteReq.mshrMissLatency::total   2224883000                       # number of WriteReq MSHR miss ticks (Tick)
system.cpu.dcache.WriteReq.mshrMissRate::cpu.data     0.012060                       # mshr miss rate for WriteReq accesses (Ratio)
system.cpu.dcache.WriteReq.mshrMissRate::total     0.012060                       # mshr miss rate for WriteReq accesses (Ratio)
system.cpu.dcache.WriteReq.avgMshrMissLatency::cpu.data 39835.332665                       # average WriteReq mshr miss latency ((Tick/Count))
system.cpu.dcache.WriteReq.avgMshrMissLatency::total 39835.332665                       # average WriteReq mshr miss latency ((Tick/Count))
system.cpu.dcache.power_state.pwrStateResidencyTicks::UNDEFINED 365639002000                       # Cumulative time (in ticks) in various power states (Tick)
system.cpu.dcache.tags.tagsInUse          1022.359169                       # Average ticks per tags in use ((Tick/Count))
system.cpu.dcache.tags.totalRefs             32782506                       # Total number of references to valid blocks. (Count)
system.cpu.dcache.tags.sampledRefs            2177624                       # Sample count of references to valid blocks. (Count)
system.cpu.dcache.tags.avgRefs              15.054255                       # Average number of references to valid blocks. ((Count/Count))
system.cpu.dcache.tags.warmupTick              308000                       # The tick when the warmup percentage was hit. (Tick)
system.cpu.dcache.tags.occupancies::cpu.data  1022.359169                       # Average occupied blocks per tick, per requestor ((Count/Tick))
system.cpu.dcache.tags.avgOccs::cpu.data     0.998398                       # Average percentage of cache occupancy ((Ratio/Tick))
system.cpu.dcache.tags.avgOccs::total        0.998398                       # Average percentage of cache occupancy ((Ratio/Tick))
system.cpu.dcache.tags.occupanciesTaskId::1024         1024                       # Occupied blocks per task id (Count)
system.cpu.dcache.tags.ageTaskId_1024::0           21                       # Occupied blocks per task id, per block age (Count)
system.cpu.dcache.tags.ageTaskId_1024::1           82                       # Occupied blocks per task id, per block age (Count)
system.cpu.dcache.tags.ageTaskId_1024::2          306                       # Occupied blocks per task id, per block age (Count)
system.cpu.dcache.tags.ageTaskId_1024::3          614                       # Occupied blocks per task id, per block age (Count)
system.cpu.dcache.tags.ageTaskId_1024::4            1                       # Occupied blocks per task id, per block age (Count)
system.cpu.dcache.tags.ratioOccsTaskId::1024            1                       # Ratio of occupied blocks and all blocks, per task id (Ratio)
system.cpu.dcache.tags.tagAccesses           67742636                       # Number of tag accesses (Count)   
system.cpu.dcache.tags.dataAccesses          67742636                       # Number of data accesses (Count)  
system.cpu.dcache.tags.power_state.pwrStateResidencyTicks::UNDEFINED 365639002000                       # Cumulative time (in ticks) in various power states (Tick)
system.cpu.exec_context.thread_0.numMatAluAccesses            0                       # Number of matrix alu accesses (Count)
system.cpu.exec_context.thread_0.numCallsReturns       201287                       # Number of times a function call or return occured (Count)
system.cpu.exec_context.thread_0.numMatInsts            0                       # Number of matrix instructions (Count)
system.cpu.exec_context.thread_0.numIdleCycles     0.001000                       # Number of idle cycles (Cycle)
system.cpu.exec_context.thread_0.numBusyCycles 365639001.999000                       # Number of busy cycles (Cycle)
system.cpu.exec_context.thread_0.notIdleFraction     1.000000                       # Percentage of non-idle cycles (Ratio)
system.cpu.exec_context.thread_0.idleFraction     0.000000                       # Percentage of idle cycles (Ratio)
system.cpu.executeStats0.numInsts                   0                       # Number of executed instructions (Count)
system.cpu.executeStats0.numNop                     0                       # Number of nop insts executed (Count)
system.cpu.executeStats0.numBranches                0                       # Number of branches executed (Count)
system.cpu.executeStats0.numLoadInsts               0                       # Number of load instructions executed (Count)
system.cpu.executeStats0.numStoreInsts       32782507                       # Number of stores executed (Count)
system.cpu.executeStats0.instRate                   0                       # Inst execution rate ((Count/Cycle))
system.cpu.executeStats0.numFpAluAccesses     19187116                       # Number of float alu accesses (Count)
system.cpu.executeStats0.numFpRegReads       15124176                       # Number of times the floating registers were read (Count)
system.cpu.executeStats0.numFpRegWrites      17040240                       # Number of times the floating registers were written (Count)
system.cpu.executeStats0.numIntAluAccesses    109863510                       # Number of integer alu accesses (Count)
system.cpu.executeStats0.numIntRegReads     152977912                       # Number of times the integer registers were read (Count)
system.cpu.executeStats0.numIntRegWrites     93755510                       # Number of times the integer registers were written (Count)
system.cpu.executeStats0.numMemRefs          32782507                       # Number of memory refs (Count)    
system.cpu.executeStats0.numMiscRegReads     46561522                       # Number of times the Misc registers were read (Count)
system.cpu.executeStats0.numVecAluAccesses            0                       # Number of vector alu accesses (Count)
system.cpu.executeStats0.numDiscardedOps            0                       # Number of ops (including micro ops) which were discarded before commit (Count)
system.cpu.fetchStats0.numInsts              88767658                       # Number of instructions fetched (thread level) (Count)
system.cpu.fetchStats0.numOps               120776390                       # Number of ops (including micro ops) fetched (thread level) (Count)
system.cpu.fetchStats0.fetchRate             0.242774                       # Number of inst fetches per cycle ((Count/Cycle))
system.cpu.fetchStats0.numBranches            2655263                       # Number of branches fetched (Count)
system.cpu.fetchStats0.branchRate            0.007262                       # Number of branch fetches per cycle (Ratio)
system.cpu.fetchStats0.numFetchSuspends             0                       # Number of times Execute suspended instruction fetching (Count)
system.cpu.icache.demandHits::cpu.inst      123248658                       # number of demand (read+write) hits (Count)
system.cpu.icache.demandHits::total         123248658                       # number of demand (read+write) hits (Count)
system.cpu.icache.overallHits::cpu.inst     123248658                       # number of overall hits (Count)   
system.cpu.icache.overallHits::total        123248658                       # number of overall hits (Count)   
system.cpu.icache.demandMisses::cpu.inst          530                       # number of demand (read+write) misses (Count)
system.cpu.icache.demandMisses::total             530                       # number of demand (read+write) misses (Count)
system.cpu.icache.overallMisses::cpu.inst          530                       # number of overall misses (Count)
system.cpu.icache.overallMisses::total            530                       # number of overall misses (Count) 
system.cpu.icache.demandMissLatency::cpu.inst     74866000                       # number of demand (read+write) miss ticks (Tick)
system.cpu.icache.demandMissLatency::total     74866000                       # number of demand (read+write) miss ticks (Tick)
system.cpu.icache.overallMissLatency::cpu.inst     74866000                       # number of overall miss ticks (Tick)
system.cpu.icache.overallMissLatency::total     74866000                       # number of overall miss ticks (Tick)
system.cpu.icache.demandAccesses::cpu.inst    123249188                       # number of demand (read+write) accesses (Count)
system.cpu.icache.demandAccesses::total     123249188                       # number of demand (read+write) accesses (Count)
system.cpu.icache.overallAccesses::cpu.inst    123249188                       # number of overall (read+write) accesses (Count)
system.cpu.icache.overallAccesses::total    123249188                       # number of overall (read+write) accesses (Count)
system.cpu.icache.demandMissRate::cpu.inst     0.000004                       # miss rate for demand accesses (Ratio)
system.cpu.icache.demandMissRate::total      0.000004                       # miss rate for demand accesses (Ratio)
system.cpu.icache.overallMissRate::cpu.inst     0.000004                       # miss rate for overall accesses (Ratio)
system.cpu.icache.overallMissRate::total     0.000004                       # miss rate for overall accesses (Ratio)
system.cpu.icache.demandAvgMissLatency::cpu.inst 141256.603774                       # average overall miss latency in ticks ((Tick/Count))
system.cpu.icache.demandAvgMissLatency::total 141256.603774                       # average overall miss latency in ticks ((Tick/Count))
system.cpu.icache.overallAvgMissLatency::cpu.inst 141256.603774                       # average overall miss latency ((Tick/Count))
system.cpu.icache.overallAvgMissLatency::total 141256.603774                       # average overall miss latency ((Tick/Count))
system.cpu.icache.blockedCycles::no_mshrs            0                       # number of cycles access was blocked (Cycle)
system.cpu.icache.blockedCycles::no_targets            0                       # number of cycles access was blocked (Cycle)
system.cpu.icache.blockedCauses::no_mshrs            0                       # number of times access was blocked (Count)
system.cpu.icache.blockedCauses::no_targets            0                       # number of times access was blocked (Count)
system.cpu.icache.avgBlocked::no_mshrs            nan                       # average number of cycles each access was blocked ((Cycle/Count))
system.cpu.icache.avgBlocked::no_targets          nan                       # average number of cycles each access was blocked ((Cycle/Count))
system.cpu.icache.demandMshrMisses::cpu.inst          530                       # number of demand (read+write) MSHR misses (Count)
system.cpu.icache.demandMshrMisses::total          530                       # number of demand (read+write) MSHR misses (Count)
system.cpu.icache.overallMshrMisses::cpu.inst          530                       # number of overall MSHR misses (Count)
system.cpu.icache.overallMshrMisses::total          530                       # number of overall MSHR misses (Count)
system.cpu.icache.demandMshrMissLatency::cpu.inst     73806000                       # number of demand (read+write) MSHR miss ticks (Tick)
system.cpu.icache.demandMshrMissLatency::total     73806000                       # number of demand (read+write) MSHR miss ticks (Tick)
system.cpu.icache.overallMshrMissLatency::cpu.inst     73806000                       # number of overall MSHR miss ticks (Tick)
system.cpu.icache.overallMshrMissLatency::total     73806000                       # number of overall MSHR miss ticks (Tick)
system.cpu.icache.demandMshrMissRate::cpu.inst     0.000004                       # mshr miss ratio for demand accesses (Ratio)
system.cpu.icache.demandMshrMissRate::total     0.000004                       # mshr miss ratio for demand accesses (Ratio)
system.cpu.icache.overallMshrMissRate::cpu.inst     0.000004                       # mshr miss ratio for overall accesses (Ratio)
system.cpu.icache.overallMshrMissRate::total     0.000004                       # mshr miss ratio for overall accesses (Ratio)
system.cpu.icache.demandAvgMshrMissLatency::cpu.inst 139256.603774                       # average overall mshr miss latency ((Tick/Count))
system.cpu.icache.demandAvgMshrMissLatency::total 139256.603774                       # average overall mshr miss latency ((Tick/Count))
system.cpu.icache.overallAvgMshrMissLatency::cpu.inst 139256.603774                       # average overall mshr miss latency ((Tick/Count))
system.cpu.icache.overallAvgMshrMissLatency::total 139256.603774                       # average overall mshr miss latency ((Tick/Count))
system.cpu.icache.replacements                    281                       # number of replacements (Count)   
system.cpu.icache.ReadReq.hits::cpu.inst    123248658                       # number of ReadReq hits (Count)   
system.cpu.icache.ReadReq.hits::total       123248658                       # number of ReadReq hits (Count)   
system.cpu.icache.ReadReq.misses::cpu.inst          530                       # number of ReadReq misses (Count)
system.cpu.icache.ReadReq.misses::total           530                       # number of ReadReq misses (Count) 
system.cpu.icache.ReadReq.missLatency::cpu.inst     74866000                       # number of ReadReq miss ticks (Tick)
system.cpu.icache.ReadReq.missLatency::total     74866000                       # number of ReadReq miss ticks (Tick)
system.cpu.icache.ReadReq.accesses::cpu.inst    123249188                       # number of ReadReq accesses(hits+misses) (Count)
system.cpu.icache.ReadReq.accesses::total    123249188                       # number of ReadReq accesses(hits+misses) (Count)
system.cpu.icache.ReadReq.missRate::cpu.inst     0.000004                       # miss rate for ReadReq accesses (Ratio)
system.cpu.icache.ReadReq.missRate::total     0.000004                       # miss rate for ReadReq accesses (Ratio)
system.cpu.icache.ReadReq.avgMissLatency::cpu.inst 141256.603774                       # average ReadReq miss latency ((Tick/Count))
system.cpu.icache.ReadReq.avgMissLatency::total 141256.603774                       # average ReadReq miss latency ((Tick/Count))
system.cpu.icache.ReadReq.mshrMisses::cpu.inst          530                       # number of ReadReq MSHR misses (Count)
system.cpu.icache.ReadReq.mshrMisses::total          530                       # number of ReadReq MSHR misses (Count)
system.cpu.icache.ReadReq.mshrMissLatency::cpu.inst     73806000                       # number of ReadReq MSHR miss ticks (Tick)
system.cpu.icache.ReadReq.mshrMissLatency::total     73806000                       # number of ReadReq MSHR miss ticks (Tick)
system.cpu.icache.ReadReq.mshrMissRate::cpu.inst     0.000004                       # mshr miss rate for ReadReq accesses (Ratio)
system.cpu.icache.ReadReq.mshrMissRate::total     0.000004                       # mshr miss rate for ReadReq accesses (Ratio)
system.cpu.icache.ReadReq.avgMshrMissLatency::cpu.inst 139256.603774                       # average ReadReq mshr miss latency ((Tick/Count))
system.cpu.icache.ReadReq.avgMshrMissLatency::total 139256.603774                       # average ReadReq mshr miss latency ((Tick/Count))
system.cpu.icache.power_state.pwrStateResidencyTicks::UNDEFINED 365639002000                       # Cumulative time (in ticks) in various power states (Tick)
system.cpu.icache.tags.tagsInUse           242.970219                       # Average ticks per tags in use ((Tick/Count))
system.cpu.icache.tags.totalRefs            123249188                       # Total number of references to valid blocks. (Count)
system.cpu.icache.tags.sampledRefs                530                       # Sample count of references to valid blocks. (Count)
system.cpu.icache.tags.avgRefs           232545.637736                       # Average number of references to valid blocks. ((Count/Count))
system.cpu.icache.tags.warmupTick              149000                       # The tick when the warmup percentage was hit. (Tick)
system.cpu.icache.tags.occupancies::cpu.inst   242.970219                       # Average occupied blocks per tick, per requestor ((Count/Tick))
system.cpu.icache.tags.avgOccs::cpu.inst     0.949102                       # Average percentage of cache occupancy ((Ratio/Tick))
system.cpu.icache.tags.avgOccs::total        0.949102                       # Average percentage of cache occupancy ((Ratio/Tick))
system.cpu.icache.tags.occupanciesTaskId::1024          249                       # Occupied blocks per task id (Count)
system.cpu.icache.tags.ageTaskId_1024::0           40                       # Occupied blocks per task id, per block age (Count)
system.cpu.icache.tags.ageTaskId_1024::1           20                       # Occupied blocks per task id, per block age (Count)
system.cpu.icache.tags.ageTaskId_1024::4          189                       # Occupied blocks per task id, per block age (Count)
system.cpu.icache.tags.ratioOccsTaskId::1024     0.972656                       # Ratio of occupied blocks and all blocks, per task id (Ratio)
system.cpu.icache.tags.tagAccesses          246498906                       # Number of tag accesses (Count)   
system.cpu.icache.tags.dataAccesses         246498906                       # Number of data accesses (Count)  
system.cpu.icache.tags.power_state.pwrStateResidencyTicks::UNDEFINED 365639002000                       # Cumulative time (in ticks) in various power states (Tick)
system.cpu.interrupts.clk_domain.clock          16000                       # Clock period in ticks (Tick)     
system.cpu.mmu.dtb.rdAccesses                28085664                       # TLB accesses on read requests (Count)
system.cpu.mmu.dtb.wrAccesses                 4696845                       # TLB accesses on write requests (Count)
system.cpu.mmu.dtb.rdMisses                       116                       # TLB misses on read requests (Count)
system.cpu.mmu.dtb.wrMisses                       108                       # TLB misses on write requests (Count)
system.cpu.mmu.dtb.walker.power_state.pwrStateResidencyTicks::UNDEFINED 365639002000                       # Cumulative time (in ticks) in various power states (Tick)
system.cpu.mmu.itb.rdAccesses                       0                       # TLB accesses on read requests (Count)
system.cpu.mmu.itb.wrAccesses               123249188                       # TLB accesses on write requests (Count)
system.cpu.mmu.itb.rdMisses                         0                       # TLB misses on read requests (Count)
system.cpu.mmu.itb.wrMisses                        43                       # TLB misses on write requests (Count)
system.cpu.mmu.itb.walker.power_state.pwrStateResidencyTicks::UNDEFINED 365639002000                       # Cumulative time (in ticks) in various power states (Tick)
system.cpu.power_state.pwrStateResidencyTicks::ON 365639002000                       # Cumulative time (in ticks) in various power states (Tick)
system.cpu.thread_0.numInsts                        0                       # Number of Instructions committed (Count)
system.cpu.thread_0.numOps                          0                       # Number of Ops committed (Count)  
system.cpu.thread_0.numMemRefs                      0                       # Number of Memory References (Count)
system.cpu.workload.numSyscalls                    14                       # Number of system calls (Count)   
system.l2bus.transDist::ReadResp              2124317                       # Transaction distribution (Count) 
system.l2bus.transDist::WritebackDirty        2180188                       # Transaction distribution (Count) 
system.l2bus.transDist::CleanEvict               5394                       # Transaction distribution (Count) 
system.l2bus.transDist::UpgradeReq               2053                       # Transaction distribution (Count) 
system.l2bus.transDist::UpgradeResp              2053                       # Transaction distribution (Count) 
system.l2bus.transDist::ReadExReq               53837                       # Transaction distribution (Count) 
system.l2bus.transDist::ReadExResp              53837                       # Transaction distribution (Count) 
system.l2bus.transDist::ReadSharedReq         2124317                       # Transaction distribution (Count) 
system.l2bus.pktCount_system.cpu.icache.mem_side_port::system.l2cache.cpu_side_port         1341               
        # Packet count per connected requestor and responder (Count)
system.l2bus.pktCount_system.cpu.dcache.mem_side_port::system.l2cache.cpu_side_port      6535954               
        # Packet count per connected requestor and responder (Count)
system.l2bus.pktCount::total                  6537295                       # Packet count per connected requestor and responder (Count)
system.l2bus.pktSize_system.cpu.icache.mem_side_port::system.l2cache.cpu_side_port        33920                
       # Cumulative packet size per connected requestor and responder (Byte)
system.l2bus.pktSize_system.cpu.dcache.mem_side_port::system.l2cache.cpu_side_port    278423552                
       # Cumulative packet size per connected requestor and responder (Byte)
system.l2bus.pktSize::total                 278457472                       # Cumulative packet size per connected requestor and responder (Byte)
system.l2bus.snoops                              8701                       # Total snoops (Count)
system.l2bus.snoopTraffic                      476416                       # Total snoop traffic (Byte)       
system.l2bus.snoopFanout::samples             2188908                       # Request fanout histogram (Count) 
system.l2bus.snoopFanout::mean               0.000145                       # Request fanout histogram (Count) 
system.l2bus.snoopFanout::stdev              0.012033                       # Request fanout histogram (Count) 
system.l2bus.snoopFanout::underflows                0      0.00%      0.00% # Request fanout histogram (Count) 
system.l2bus.snoopFanout::0                   2188591     99.99%     99.99% # Request fanout histogram (Count) 
system.l2bus.snoopFanout::1                       317      0.01%    100.00% # Request fanout histogram (Count) 
system.l2bus.snoopFanout::2                         0      0.00%    100.00% # Request fanout histogram (Count) 
system.l2bus.snoopFanout::overflows                 0      0.00%    100.00% # Request fanout histogram (Count) 
system.l2bus.snoopFanout::min_value                 0                       # Request fanout histogram (Count) 
system.l2bus.snoopFanout::max_value                 1                       # Request fanout histogram (Count) 
system.l2bus.snoopFanout::total               2188908                       # Request fanout histogram (Count) 
system.l2bus.power_state.pwrStateResidencyTicks::UNDEFINED 365639002000                       # Cumulative time (in ticks) in various power states (Tick)
system.l2bus.reqLayer0.occupancy           8702576000                       # Layer occupancy (ticks) (Tick)   
system.l2bus.reqLayer0.utilization                0.0                       # Layer utilization (Ratio)        
system.l2bus.respLayer0.occupancy             1590000                       # Layer occupancy (ticks) (Tick)   
system.l2bus.respLayer0.utilization               0.0                       # Layer utilization (Ratio)        
system.l2bus.respLayer1.occupancy          6534925000                       # Layer occupancy (ticks) (Tick)   
system.l2bus.respLayer1.utilization               0.0                       # Layer utilization (Ratio)        
system.l2bus.snoop_filter.totRequests         4357088                       # Total number of requests made to the snoop filter. (Count)
system.l2bus.snoop_filter.hitSingleRequests      2178934                       # Number of requests hitting in the snoop filter with a single holder of the requested data. (Count)
system.l2bus.snoop_filter.hitMultiRequests            0                       # Number of requests hitting in the snoop filter with multiple (>1) holders of the requested data. (Count)
system.l2bus.snoop_filter.totSnoops               317                       # Total number of snoops made to the snoop filter. (Count)
system.l2bus.snoop_filter.hitSingleSnoops          317                       # Number of snoops hitting in the snoop filter with a single holder of the requested data. (Count)
system.l2bus.snoop_filter.hitMultiSnoops            0                       # Number of snoops hitting in the snoop filter with multiple (>1) holders of the requested data. (Count)
system.l2cache.demandHits::cpu.inst                12                       # number of demand (read+write) hits (Count)
system.l2cache.demandHits::cpu.data           2165444                       # number of demand (read+write) hits (Count)
system.l2cache.demandHits::total              2165456                       # number of demand (read+write) hits (Count)
system.l2cache.overallHits::cpu.inst               12                       # number of overall hits (Count)   
system.l2cache.overallHits::cpu.data          2165444                       # number of overall hits (Count)   
system.l2cache.overallHits::total             2165456                       # number of overall hits (Count)   
system.l2cache.demandMisses::cpu.inst             518                       # number of demand (read+write) misses (Count)
system.l2cache.demandMisses::cpu.data           12180                       # number of demand (read+write) misses (Count)
system.l2cache.demandMisses::total              12698                       # number of demand (read+write) misses (Count)
system.l2cache.overallMisses::cpu.inst            518                       # number of overall misses (Count) 
system.l2cache.overallMisses::cpu.data          12180                       # number of overall misses (Count) 
system.l2cache.overallMisses::total             12698                       # number of overall misses (Count) 
system.l2cache.demandMissLatency::cpu.inst     71963000                       # number of demand (read+write) miss ticks (Tick)
system.l2cache.demandMissLatency::cpu.data   1445342000                       # number of demand (read+write) miss ticks (Tick)
system.l2cache.demandMissLatency::total    1517305000                       # number of demand (read+write) miss ticks (Tick)
system.l2cache.overallMissLatency::cpu.inst     71963000                       # number of overall miss ticks (Tick)
system.l2cache.overallMissLatency::cpu.data   1445342000                       # number of overall miss ticks (Tick)
system.l2cache.overallMissLatency::total   1517305000                       # number of overall miss ticks (Tick)
system.l2cache.demandAccesses::cpu.inst           530                       # number of demand (read+write) accesses (Count)
system.l2cache.demandAccesses::cpu.data       2177624                       # number of demand (read+write) accesses (Count)
system.l2cache.demandAccesses::total          2178154                       # number of demand (read+write) accesses (Count)
system.l2cache.overallAccesses::cpu.inst          530                       # number of overall (read+write) accesses (Count)
system.l2cache.overallAccesses::cpu.data      2177624                       # number of overall (read+write) accesses (Count)
system.l2cache.overallAccesses::total         2178154                       # number of overall (read+write) accesses (Count)
system.l2cache.demandMissRate::cpu.inst      0.977358                       # miss rate for demand accesses (Ratio)
system.l2cache.demandMissRate::cpu.data      0.005593                       # miss rate for demand accesses (Ratio)
system.l2cache.demandMissRate::total         0.005830                       # miss rate for demand accesses (Ratio)
system.l2cache.overallMissRate::cpu.inst     0.977358                       # miss rate for overall accesses (Ratio)
system.l2cache.overallMissRate::cpu.data     0.005593                       # miss rate for overall accesses (Ratio)
system.l2cache.overallMissRate::total        0.005830                       # miss rate for overall accesses (Ratio)
system.l2cache.demandAvgMissLatency::cpu.inst 138924.710425                       # average overall miss latency in ticks ((Tick/Count))
system.l2cache.demandAvgMissLatency::cpu.data 118665.188834                       # average overall miss latency in ticks ((Tick/Count))
system.l2cache.demandAvgMissLatency::total 119491.652229                       # average overall miss latency in ticks ((Tick/Count))
system.l2cache.overallAvgMissLatency::cpu.inst 138924.710425                       # average overall miss latency ((Tick/Count))
system.l2cache.overallAvgMissLatency::cpu.data 118665.188834                       # average overall miss latency ((Tick/Count))
system.l2cache.overallAvgMissLatency::total 119491.652229                       # average overall miss latency ((Tick/Count))
system.l2cache.blockedCycles::no_mshrs              0                       # number of cycles access was blocked (Cycle)
system.l2cache.blockedCycles::no_targets            0                       # number of cycles access was blocked (Cycle)
system.l2cache.blockedCauses::no_mshrs              0                       # number of times access was blocked (Count)
system.l2cache.blockedCauses::no_targets            0                       # number of times access was blocked (Count)
system.l2cache.avgBlocked::no_mshrs               nan                       # average number of cycles each access was blocked ((Cycle/Count))
system.l2cache.avgBlocked::no_targets             nan                       # average number of cycles each access was blocked ((Cycle/Count))
system.l2cache.writebacks::writebacks            7444                       # number of writebacks (Count)     
system.l2cache.writebacks::total                 7444                       # number of writebacks (Count)     
system.l2cache.demandMshrMisses::cpu.inst          518                       # number of demand (read+write) MSHR misses (Count)
system.l2cache.demandMshrMisses::cpu.data        12180                       # number of demand (read+write) MSHR misses (Count)
system.l2cache.demandMshrMisses::total          12698                       # number of demand (read+write) MSHR misses (Count)
system.l2cache.overallMshrMisses::cpu.inst          518                       # number of overall MSHR misses (Count)
system.l2cache.overallMshrMisses::cpu.data        12180                       # number of overall MSHR misses (Count)
system.l2cache.overallMshrMisses::total         12698                       # number of overall MSHR misses (Count)
system.l2cache.demandMshrMissLatency::cpu.inst     61603000                       # number of demand (read+write) MSHR miss ticks (Tick)
system.l2cache.demandMshrMissLatency::cpu.data   1201742000                       # number of demand (read+write) MSHR miss ticks (Tick)
system.l2cache.demandMshrMissLatency::total   1263345000                       # number of demand (read+write) MSHR miss ticks (Tick)
system.l2cache.overallMshrMissLatency::cpu.inst     61603000                       # number of overall MSHR miss ticks (Tick)
system.l2cache.overallMshrMissLatency::cpu.data   1201742000                       # number of overall MSHR miss ticks (Tick)
system.l2cache.overallMshrMissLatency::total   1263345000                       # number of overall MSHR miss ticks (Tick)
system.l2cache.demandMshrMissRate::cpu.inst     0.977358                       # mshr miss ratio for demand accesses (Ratio)
system.l2cache.demandMshrMissRate::cpu.data     0.005593                       # mshr miss ratio for demand accesses (Ratio)
system.l2cache.demandMshrMissRate::total     0.005830                       # mshr miss ratio for demand accesses (Ratio)
system.l2cache.overallMshrMissRate::cpu.inst     0.977358                       # mshr miss ratio for overall accesses (Ratio)
system.l2cache.overallMshrMissRate::cpu.data     0.005593                       # mshr miss ratio for overall accesses (Ratio)
system.l2cache.overallMshrMissRate::total     0.005830                       # mshr miss ratio for overall accesses (Ratio)
system.l2cache.demandAvgMshrMissLatency::cpu.inst 118924.710425                       # average overall mshr miss latency ((Tick/Count))
system.l2cache.demandAvgMshrMissLatency::cpu.data 98665.188834                       # average overall mshr miss latency ((Tick/Count))
system.l2cache.demandAvgMshrMissLatency::total 99491.652229                       # average overall mshr miss latency ((Tick/Count))
system.l2cache.overallAvgMshrMissLatency::cpu.inst 118924.710425                       # average overall mshr miss latency ((Tick/Count))
system.l2cache.overallAvgMshrMissLatency::cpu.data 98665.188834                       # average overall mshr miss latency ((Tick/Count))
system.l2cache.overallAvgMshrMissLatency::total 99491.652229                       # average overall mshr miss latency ((Tick/Count))
system.l2cache.replacements                      8602                       # number of replacements (Count)   
system.l2cache.CleanEvict.mshrMisses::writebacks           58                       # number of CleanEvict MSHR misses (Count)
system.l2cache.CleanEvict.mshrMisses::total           58                       # number of CleanEvict MSHR misses (Count)
system.l2cache.CleanEvict.mshrMissRate::writebacks          inf                       # mshr miss rate for CleanEvict accesses (Ratio)
system.l2cache.CleanEvict.mshrMissRate::total          inf                       # mshr miss rate for CleanEvict accesses (Ratio)
system.l2cache.ReadExReq.hits::cpu.data         47553                       # number of ReadExReq hits (Count) 
system.l2cache.ReadExReq.hits::total            47553                       # number of ReadExReq hits (Count) 
system.l2cache.ReadExReq.misses::cpu.data         6284                       # number of ReadExReq misses (Count)
system.l2cache.ReadExReq.misses::total           6284                       # number of ReadExReq misses (Count)
system.l2cache.ReadExReq.missLatency::cpu.data   1016607000                       # number of ReadExReq miss ticks (Tick)
system.l2cache.ReadExReq.missLatency::total   1016607000                       # number of ReadExReq miss ticks (Tick)
system.l2cache.ReadExReq.accesses::cpu.data        53837                       # number of ReadExReq accesses(hits+misses) (Count)
system.l2cache.ReadExReq.accesses::total        53837                       # number of ReadExReq accesses(hits+misses) (Count)
system.l2cache.ReadExReq.missRate::cpu.data     0.116723                       # miss rate for ReadExReq accesses (Ratio)
system.l2cache.ReadExReq.missRate::total     0.116723                       # miss rate for ReadExReq accesses (Ratio)
system.l2cache.ReadExReq.avgMissLatency::cpu.data 161777.052833                       # average ReadExReq miss latency ((Tick/Count))
system.l2cache.ReadExReq.avgMissLatency::total 161777.052833                       # average ReadExReq miss latency ((Tick/Count))
system.l2cache.ReadExReq.mshrMisses::cpu.data         6284                       # number of ReadExReq MSHR misses (Count)
system.l2cache.ReadExReq.mshrMisses::total         6284                       # number of ReadExReq MSHR misses (Count)
system.l2cache.ReadExReq.mshrMissLatency::cpu.data    890927000                       # number of ReadExReq MSHR miss ticks (Tick)
system.l2cache.ReadExReq.mshrMissLatency::total    890927000                       # number of ReadExReq MSHR miss ticks (Tick)
system.l2cache.ReadExReq.mshrMissRate::cpu.data     0.116723                       # mshr miss rate for ReadExReq accesses (Ratio)
system.l2cache.ReadExReq.mshrMissRate::total     0.116723                       # mshr miss rate for ReadExReq accesses (Ratio)
system.l2cache.ReadExReq.avgMshrMissLatency::cpu.data 141777.052833                       # average ReadExReq mshr miss latency ((Tick/Count))
system.l2cache.ReadExReq.avgMshrMissLatency::total 141777.052833                       # average ReadExReq mshr miss latency ((Tick/Count))
system.l2cache.ReadSharedReq.hits::cpu.inst           12                       # number of ReadSharedReq hits (Count)
system.l2cache.ReadSharedReq.hits::cpu.data      2117891                       # number of ReadSharedReq hits (Count)
system.l2cache.ReadSharedReq.hits::total      2117903                       # number of ReadSharedReq hits (Count)
system.l2cache.ReadSharedReq.misses::cpu.inst          518                       # number of ReadSharedReq misses (Count)
system.l2cache.ReadSharedReq.misses::cpu.data         5896                       # number of ReadSharedReq misses (Count)
system.l2cache.ReadSharedReq.misses::total         6414                       # number of ReadSharedReq misses (Count)
system.l2cache.ReadSharedReq.missLatency::cpu.inst     71963000                       # number of ReadSharedReq miss ticks (Tick)
system.l2cache.ReadSharedReq.missLatency::cpu.data    428735000                       # number of ReadSharedReq miss ticks (Tick)
system.l2cache.ReadSharedReq.missLatency::total    500698000                       # number of ReadSharedReq miss ticks (Tick)
system.l2cache.ReadSharedReq.accesses::cpu.inst          530                       # number of ReadSharedReq accesses(hits+misses) (Count)
system.l2cache.ReadSharedReq.accesses::cpu.data      2123787                       # number of ReadSharedReq accesses(hits+misses) (Count)
system.l2cache.ReadSharedReq.accesses::total      2124317                       # number of ReadSharedReq accesses(hits+misses) (Count)
system.l2cache.ReadSharedReq.missRate::cpu.inst     0.977358                       # miss rate for ReadSharedReq accesses (Ratio)
system.l2cache.ReadSharedReq.missRate::cpu.data     0.002776                       # miss rate for ReadSharedReq accesses (Ratio)
system.l2cache.ReadSharedReq.missRate::total     0.003019                       # miss rate for ReadSharedReq accesses (Ratio)
system.l2cache.ReadSharedReq.avgMissLatency::cpu.inst 138924.710425                       # average ReadSharedReq miss latency ((Tick/Count))
system.l2cache.ReadSharedReq.avgMissLatency::cpu.data 72716.248304                       # average ReadSharedReq miss latency ((Tick/Count))
system.l2cache.ReadSharedReq.avgMissLatency::total 78063.299033                       # average ReadSharedReq miss latency ((Tick/Count))
system.l2cache.ReadSharedReq.mshrMisses::cpu.inst          518                       # number of ReadSharedReq MSHR misses (Count)
system.l2cache.ReadSharedReq.mshrMisses::cpu.data         5896                       # number of ReadSharedReq MSHR misses (Count)
system.l2cache.ReadSharedReq.mshrMisses::total         6414                       # number of ReadSharedReq MSHR misses (Count)
system.l2cache.ReadSharedReq.mshrMissLatency::cpu.inst     61603000                       # number of ReadSharedReq MSHR miss ticks (Tick)
system.l2cache.ReadSharedReq.mshrMissLatency::cpu.data    310815000                       # number of ReadSharedReq MSHR miss ticks (Tick)
system.l2cache.ReadSharedReq.mshrMissLatency::total    372418000                       # number of ReadSharedReq MSHR miss ticks (Tick)
system.l2cache.ReadSharedReq.mshrMissRate::cpu.inst     0.977358                       # mshr miss rate for ReadSharedReq accesses (Ratio)
system.l2cache.ReadSharedReq.mshrMissRate::cpu.data     0.002776                       # mshr miss rate for ReadSharedReq accesses (Ratio)
system.l2cache.ReadSharedReq.mshrMissRate::total     0.003019                       # mshr miss rate for ReadSharedReq accesses (Ratio)
system.l2cache.ReadSharedReq.avgMshrMissLatency::cpu.inst 118924.710425                       # average ReadSharedReq mshr miss latency ((Tick/Count))
system.l2cache.ReadSharedReq.avgMshrMissLatency::cpu.data 52716.248304                       # average ReadSharedReq mshr miss latency ((Tick/Count))
system.l2cache.ReadSharedReq.avgMshrMissLatency::total 58063.299033                       # average ReadSharedReq mshr miss latency ((Tick/Count))
system.l2cache.UpgradeReq.hits::cpu.data         2053                       # number of UpgradeReq hits (Count)
system.l2cache.UpgradeReq.hits::total            2053                       # number of UpgradeReq hits (Count)
system.l2cache.UpgradeReq.accesses::cpu.data         2053                       # number of UpgradeReq accesses(hits+misses) (Count)
system.l2cache.UpgradeReq.accesses::total         2053                       # number of UpgradeReq accesses(hits+misses) (Count)
system.l2cache.WritebackDirty.hits::writebacks      2172744                       # number of WritebackDirty hits (Count)
system.l2cache.WritebackDirty.hits::total      2172744                       # number of WritebackDirty hits (Count)
system.l2cache.WritebackDirty.accesses::writebacks      2172744                       # number of WritebackDirty accesses(hits+misses) (Count)
system.l2cache.WritebackDirty.accesses::total      2172744                       # number of WritebackDirty accesses(hits+misses) (Count)
system.l2cache.power_state.pwrStateResidencyTicks::UNDEFINED 365639002000                       # Cumulative time (in ticks) in various power states (Tick)
system.l2cache.tags.tagsInUse             4070.152358                       # Average ticks per tags in use ((Tick/Count))
system.l2cache.tags.totalRefs                 4357030                       # Total number of references to valid blocks. (Count)
system.l2cache.tags.sampledRefs                 12698                       # Sample count of references to valid blocks. (Count)
system.l2cache.tags.avgRefs                343.127264                       # Average number of references to valid blocks. ((Count/Count))
system.l2cache.tags.warmupTick                 128000                       # The tick when the warmup percentage was hit. (Tick)
system.l2cache.tags.occupancies::cpu.inst     8.510687                       # Average occupied blocks per tick, per requestor ((Count/Tick))
system.l2cache.tags.occupancies::cpu.data  4061.641671                       # Average occupied blocks per tick, per requestor ((Count/Tick))
system.l2cache.tags.avgOccs::cpu.inst        0.002078                       # Average percentage of cache occupancy ((Ratio/Tick))
system.l2cache.tags.avgOccs::cpu.data        0.991612                       # Average percentage of cache occupancy ((Ratio/Tick))
system.l2cache.tags.avgOccs::total           0.993690                       # Average percentage of cache occupancy ((Ratio/Tick))
system.l2cache.tags.occupanciesTaskId::1024         4096                       # Occupied blocks per task id (Count)
system.l2cache.tags.ageTaskId_1024::0              61                       # Occupied blocks per task id, per block age (Count)
system.l2cache.tags.ageTaskId_1024::1              42                       # Occupied blocks per task id, per block age (Count)
system.l2cache.tags.ageTaskId_1024::2               5                       # Occupied blocks per task id, per block age (Count)
system.l2cache.tags.ageTaskId_1024::3             100                       # Occupied blocks per task id, per block age (Count)
system.l2cache.tags.ageTaskId_1024::4            3888                       # Occupied blocks per task id, per block age (Count)
system.l2cache.tags.ratioOccsTaskId::1024            1                       # Ratio of occupied blocks and all blocks, per task id (Ratio)
system.l2cache.tags.tagAccesses              34869402                       # Number of tag accesses (Count)   
system.l2cache.tags.dataAccesses             34869402                       # Number of data accesses (Count)  
system.l2cache.tags.power_state.pwrStateResidencyTicks::UNDEFINED 365639002000                       # Cumulative time (in ticks) in various power states (Tick)
system.l3bus.transDist::ReadResp                 6414                       # Transaction distribution (Count) 
system.l3bus.transDist::WritebackDirty           7444                       # Transaction distribution (Count) 
system.l3bus.transDist::CleanEvict               1092                       # Transaction distribution (Count) 
system.l3bus.transDist::ReadExReq                6284                       # Transaction distribution (Count) 
system.l3bus.transDist::ReadExResp               6284                       # Transaction distribution (Count) 
system.l3bus.transDist::ReadSharedReq            6414                       # Transaction distribution (Count) 
system.l3bus.pktCount_system.l2cache.mem_side_port::system.l3cache.cpu_side_port        33807                  
     # Packet count per connected requestor and responder (Count)
system.l3bus.pktSize_system.l2cache.mem_side_port::system.l3cache.cpu_side_port      1289088                   
    # Cumulative packet size per connected requestor and responder (Byte)
system.l3bus.snoops                               125                       # Total snoops (Count)
system.l3bus.snoopTraffic                           0                       # Total snoop traffic (Byte)       
system.l3bus.snoopFanout::samples               12823                       # Request fanout histogram (Count) 
system.l3bus.snoopFanout::mean               0.007721                       # Request fanout histogram (Count) 
system.l3bus.snoopFanout::stdev              0.087530                       # Request fanout histogram (Count) 
system.l3bus.snoopFanout::underflows                0      0.00%      0.00% # Request fanout histogram (Count) 
system.l3bus.snoopFanout::0                     12724     99.23%     99.23% # Request fanout histogram (Count) 
system.l3bus.snoopFanout::1                        99      0.77%    100.00% # Request fanout histogram (Count) 
system.l3bus.snoopFanout::overflows                 0      0.00%    100.00% # Request fanout histogram (Count) 
system.l3bus.snoopFanout::min_value                 0                       # Request fanout histogram (Count) 
system.l3bus.snoopFanout::max_value                 1                       # Request fanout histogram (Count) 
system.l3bus.snoopFanout::total                 12823                       # Request fanout histogram (Count) 
system.l3bus.power_state.pwrStateResidencyTicks::UNDEFINED 365639002000                       # Cumulative time (in ticks) in various power states (Tick)
system.l3bus.reqLayer0.occupancy             35997000                       # Layer occupancy (ticks) (Tick)   
system.l3bus.reqLayer0.utilization                0.0                       # Layer utilization (Ratio)        
system.l3bus.respLayer0.occupancy            38094000                       # Layer occupancy (ticks) (Tick)   
system.l3bus.respLayer0.utilization               0.0                       # Layer utilization (Ratio)        
system.l3bus.snoop_filter.totRequests           21109                       # Total number of requests made to the snoop filter. (Count)
system.l3bus.snoop_filter.hitSingleRequests         8411                       # Number of requests hitting in the snoop filter with a single holder of the requested data. (Count)
system.l3bus.snoop_filter.hitMultiRequests            0                       # Number of requests hitting in the snoop filter with multiple (>1) holders of the requested data. (Count)
system.l3bus.snoop_filter.totSnoops                99                       # Total number of snoops made to the snoop filter. (Count)
system.l3bus.snoop_filter.hitSingleSnoops           99                       # Number of snoops hitting in the snoop filter with a single holder of the requested data. (Count)
system.l3bus.snoop_filter.hitMultiSnoops            0                       # Number of snoops hitting in the snoop filter with multiple (>1) holders of the requested data. (Count)
system.l3cache.demandHits::cpu.inst                 1                       # number of demand (read+write) hits (Count)
system.l3cache.demandHits::cpu.data              5161                       # number of demand (read+write) hits (Count)
system.l3cache.demandHits::total                 5162                       # number of demand (read+write) hits (Count)
system.l3cache.overallHits::cpu.inst                1                       # number of overall hits (Count)   
system.l3cache.overallHits::cpu.data             5161                       # number of overall hits (Count)   
system.l3cache.overallHits::total                5162                       # number of overall hits (Count)   
system.l3cache.demandMisses::cpu.inst             517                       # number of demand (read+write) misses (Count)
system.l3cache.demandMisses::cpu.data            7019                       # number of demand (read+write) misses (Count)
system.l3cache.demandMisses::total               7536                       # number of demand (read+write) misses (Count)
system.l3cache.overallMisses::cpu.inst            517                       # number of overall misses (Count) 
system.l3cache.overallMisses::cpu.data           7019                       # number of overall misses (Count) 
system.l3cache.overallMisses::total              7536                       # number of overall misses (Count) 
system.l3cache.demandMissLatency::cpu.inst     50186000                       # number of demand (read+write) miss ticks (Tick)
system.l3cache.demandMissLatency::cpu.data    825401000                       # number of demand (read+write) miss ticks (Tick)
system.l3cache.demandMissLatency::total     875587000                       # number of demand (read+write) miss ticks (Tick)
system.l3cache.overallMissLatency::cpu.inst     50186000                       # number of overall miss ticks (Tick)
system.l3cache.overallMissLatency::cpu.data    825401000                       # number of overall miss ticks (Tick)
system.l3cache.overallMissLatency::total    875587000                       # number of overall miss ticks (Tick)
[...]
system.mem_ctrl.dram.bytesRead::cpu.data       449216                       # Number of bytes read from this memory (Byte)
system.mem_ctrl.dram.bytesRead::total          482304                       # Number of bytes read from this memory (Byte)
system.mem_ctrl.dram.bytesInstRead::cpu.inst        33088                       # Number of instructions bytes read from this memory (Byte)
system.mem_ctrl.dram.bytesInstRead::total        33088                       # Number of instructions bytes read from this memory (Byte)
system.mem_ctrl.dram.numReads::cpu.inst           517                       # Number of read requests responded to by this memory (Count)
system.mem_ctrl.dram.numReads::cpu.data          7019                       # Number of read requests responded to by this memory (Count)
system.mem_ctrl.dram.numReads::total             7536                       # Number of read requests responded to by this memory (Count)
system.mem_ctrl.dram.bwRead::cpu.inst           90494                       # Total read bandwidth from this memory ((Byte/Second))
system.mem_ctrl.dram.bwRead::cpu.data         1228578                       # Total read bandwidth from this memory ((Byte/Second))
system.mem_ctrl.dram.bwRead::total            1319072                       # Total read bandwidth from this memory ((Byte/Second))
system.mem_ctrl.dram.bwInstRead::cpu.inst        90494                       # Instruction read bandwidth from this memory ((Byte/Second))
system.mem_ctrl.dram.bwInstRead::total          90494                       # Instruction read bandwidth from this memory ((Byte/Second))
system.mem_ctrl.dram.bwTotal::cpu.inst          90494                       # Total bandwidth to/from this memory ((Byte/Second))
system.mem_ctrl.dram.bwTotal::cpu.data        1228578                       # Total bandwidth to/from this memory ((Byte/Second))
system.mem_ctrl.dram.bwTotal::total           1319072                       # Total bandwidth to/from this memory ((Byte/Second))
system.mem_ctrl.dram.readBursts                  7536                       # Number of DRAM read bursts (Count)
system.mem_ctrl.dram.writeBursts                    0                       # Number of DRAM write bursts (Count)
system.mem_ctrl.dram.perBankRdBursts::0           566                       # Per bank write bursts (Count)    
system.mem_ctrl.dram.perBankRdBursts::1           570                       # Per bank write bursts (Count)    
system.mem_ctrl.dram.perBankRdBursts::2           468                       # Per bank write bursts (Count)    
system.mem_ctrl.dram.perBankRdBursts::3           444                       # Per bank write bursts (Count)    
system.mem_ctrl.dram.perBankRdBursts::4           487                       # Per bank write bursts (Count)    
system.mem_ctrl.dram.perBankRdBursts::5           506                       # Per bank write bursts (Count)    
system.mem_ctrl.dram.perBankRdBursts::6           398                       # Per bank write bursts (Count)    
system.mem_ctrl.dram.perBankRdBursts::7           389                       # Per bank write bursts (Count)    
system.mem_ctrl.dram.perBankRdBursts::8           436                       # Per bank write bursts (Count)    
system.mem_ctrl.dram.perBankRdBursts::9           411                       # Per bank write bursts (Count)    
system.mem_ctrl.dram.perBankRdBursts::10          416                       # Per bank write bursts (Count)    
system.mem_ctrl.dram.perBankRdBursts::11          435                       # Per bank write bursts (Count)    
system.mem_ctrl.dram.perBankRdBursts::12          409                       # Per bank write bursts (Count)    
system.mem_ctrl.dram.perBankRdBursts::13          508                       # Per bank write bursts (Count)    
system.mem_ctrl.dram.perBankRdBursts::14          569                       # Per bank write bursts (Count)    
system.mem_ctrl.dram.perBankRdBursts::15          524                       # Per bank write bursts (Count)    
system.mem_ctrl.dram.perBankWrBursts::0             0                       # Per bank write bursts (Count)    
system.mem_ctrl.dram.perBankWrBursts::1             0                       # Per bank write bursts (Count)    
system.mem_ctrl.dram.perBankWrBursts::2             0                       # Per bank write bursts (Count)    
system.mem_ctrl.dram.perBankWrBursts::3             0                       # Per bank write bursts (Count)    
system.mem_ctrl.dram.perBankWrBursts::4             0                       # Per bank write bursts (Count)    
system.mem_ctrl.dram.perBankWrBursts::5             0                       # Per bank write bursts (Count)    
system.mem_ctrl.dram.perBankWrBursts::6             0                       # Per bank write bursts (Count)    
system.mem_ctrl.dram.perBankWrBursts::7             0                       # Per bank write bursts (Count)    
system.mem_ctrl.dram.perBankWrBursts::8             0                       # Per bank write bursts (Count)    
system.mem_ctrl.dram.perBankWrBursts::9             0                       # Per bank write bursts (Count)    
system.mem_ctrl.dram.perBankWrBursts::10            0                       # Per bank write bursts (Count)    
system.mem_ctrl.dram.perBankWrBursts::11            0                       # Per bank write bursts (Count)    
system.mem_ctrl.dram.perBankWrBursts::12            0                       # Per bank write bursts (Count)    
system.mem_ctrl.dram.perBankWrBursts::13            0                       # Per bank write bursts (Count)    
system.mem_ctrl.dram.perBankWrBursts::14            0                       # Per bank write bursts (Count)    
system.mem_ctrl.dram.perBankWrBursts::15            0                       # Per bank write bursts (Count)    
system.mem_ctrl.dram.totQLat                194586000                       # Total ticks spent queuing (Tick) 
system.mem_ctrl.dram.totBusLat               37680000                       # Total ticks spent in databus transfers (Tick)
system.mem_ctrl.dram.totMemAccLat           335886000                       # Total ticks spent from burst creation until serviced by the DRAM (Tick)
system.mem_ctrl.dram.avgQLat                 25820.86                       # Average queueing delay per DRAM burst ((Tick/Count))
system.mem_ctrl.dram.avgBusLat                5000.00                       # Average bus latency per DRAM burst ((Tick/Count))
system.mem_ctrl.dram.avgMemAccLat            44570.86                       # Average memory access latency per DRAM burst ((Tick/Count))
system.mem_ctrl.dram.readRowHits                 1123                       # Number of row buffer hits during reads (Count)
system.mem_ctrl.dram.writeRowHits                   0                       # Number of row buffer hits during writes (Count)
system.mem_ctrl.dram.readRowHitRate             14.90                       # Row buffer hit rate for reads (Ratio)
system.mem_ctrl.dram.writeRowHitRate              nan                       # Row buffer hit rate for writes (Ratio)
system.mem_ctrl.dram.bytesPerActivate::samples         6409                       # Bytes accessed per row activation (Byte)
system.mem_ctrl.dram.bytesPerActivate::mean    75.034483                       # Bytes accessed per row activation (Byte)
system.mem_ctrl.dram.bytesPerActivate::gmean    67.404523                       # Bytes accessed per row activation (Byte)
system.mem_ctrl.dram.bytesPerActivate::stdev    76.587316                       # Bytes accessed per row activation (Byte)
system.mem_ctrl.dram.bytesPerActivate::0-127         6209     96.88%     96.88% # Bytes accessed per row activation (Byte)
system.mem_ctrl.dram.bytesPerActivate::128-255           66      1.03%     97.91% # Bytes accessed per row activation (Byte)
system.mem_ctrl.dram.bytesPerActivate::256-383           31      0.48%     98.39% # Bytes accessed per row activation (Byte)
system.mem_ctrl.dram.bytesPerActivate::384-511           26      0.41%     98.80% # Bytes accessed per row activation (Byte)
system.mem_ctrl.dram.bytesPerActivate::512-639           21      0.33%     99.13% # Bytes accessed per row activation (Byte)
system.mem_ctrl.dram.bytesPerActivate::640-767           33      0.51%     99.64% # Bytes accessed per row activation (Byte)
system.mem_ctrl.dram.bytesPerActivate::768-895           12      0.19%     99.83% # Bytes accessed per row activation (Byte)
system.mem_ctrl.dram.bytesPerActivate::896-1023            3      0.05%     99.88% # Bytes accessed per row activation (Byte)
system.mem_ctrl.dram.bytesPerActivate::1024-1151            8      0.12%    100.00% # Bytes accessed per row activation (Byte)
system.mem_ctrl.dram.bytesPerActivate::total         6409                       # Bytes accessed per row activation (Byte)
system.mem_ctrl.dram.bytesRead                 482304                       # Total bytes read (Byte)
system.mem_ctrl.dram.bytesWritten                   0                       # Total bytes written (Byte)       
system.mem_ctrl.dram.avgRdBW                 1.319072                       # Average DRAM read bandwidth in MiBytes/s ((Byte/Second))
system.mem_ctrl.dram.avgWrBW                        0                       # Average DRAM write bandwidth in MiBytes/s ((Byte/Second))
system.mem_ctrl.dram.peakBW                  12800.00                       # Theoretical peak bandwidth in MiByte/s ((Byte/Second))
system.mem_ctrl.dram.busUtil                     0.01                       # Data bus utilization in percentage (Ratio)
system.mem_ctrl.dram.busUtilRead                 0.01                       # Data bus utilization in percentage for reads (Ratio)
system.mem_ctrl.dram.busUtilWrite                0.00                       # Data bus utilization in percentage for writes (Ratio)
system.mem_ctrl.dram.pageHitRate                14.90                       # Row buffer hit rate, read and write combined (Ratio)
system.mem_ctrl.dram.power_state.pwrStateResidencyTicks::UNDEFINED 365639002000                       # Cumulative time (in ticks) in various power states (Tick)
system.mem_ctrl.dram.rank0.actEnergy         22976520                       # Energy for activate commands per rank (pJ) (Joule)
system.mem_ctrl.dram.rank0.preEnergy         12200925                       # Energy for precharge commands per rank (pJ) (Joule)
system.mem_ctrl.dram.rank0.readEnergy        27331920                       # Energy for read commands per rank (pJ) (Joule)
system.mem_ctrl.dram.rank0.writeEnergy              0                       # Energy for write commands per rank (pJ) (Joule)
system.mem_ctrl.dram.rank0.refreshEnergy 28862879760.000004                       # Energy for refresh commands per rank (pJ) (Joule)
system.mem_ctrl.dram.rank0.actBackEnergy   7249670400                       # Energy for active background per rank (pJ) (Joule)
system.mem_ctrl.dram.rank0.preBackEnergy 134300391360                       # Energy for precharge background per rank (pJ) (Joule)
system.mem_ctrl.dram.rank0.actPowerDownEnergy            0                       # Energy for active power-down per rank (pJ) (Joule)
system.mem_ctrl.dram.rank0.prePowerDownEnergy            0                       # Energy for precharge power-down per rank (pJ) (Joule)
system.mem_ctrl.dram.rank0.selfRefreshEnergy            0                       # Energy for self refresh per rank (pJ) (Joule)
system.mem_ctrl.dram.rank0.totalEnergy   170475450885                       # Total energy per rank (pJ) (Joule)
system.mem_ctrl.dram.rank0.averagePower    466.239788                       # Core power per rank (mW) (Watt)  
system.mem_ctrl.dram.rank0.totalIdleTime            0                       # Total Idle time Per DRAM Rank (Tick)
system.mem_ctrl.dram.rank0.pwrStateTime::IDLE 349051867500                       # Time in different power states (Tick)
system.mem_ctrl.dram.rank0.pwrStateTime::REF  12209340000                       # Time in different power states (Tick)
system.mem_ctrl.dram.rank0.pwrStateTime::SREF            0                       # Time in different power states (Tick)
system.mem_ctrl.dram.rank0.pwrStateTime::PRE_PDN            0                       # Time in different power states (Tick)
system.mem_ctrl.dram.rank0.pwrStateTime::ACT   4377794500                       # Time in different power states (Tick)
system.mem_ctrl.dram.rank0.pwrStateTime::ACT_PDN            0                       # Time in different power states (Tick)
system.mem_ctrl.dram.rank1.actEnergy         22812300                       # Energy for activate commands per rank (pJ) (Joule)
system.mem_ctrl.dram.rank1.preEnergy         12121230                       # Energy for precharge commands per rank (pJ) (Joule)
system.mem_ctrl.dram.rank1.readEnergy        26475120                       # Energy for read commands per rank (pJ) (Joule)
system.mem_ctrl.dram.rank1.writeEnergy              0                       # Energy for write commands per rank (pJ) (Joule)
system.mem_ctrl.dram.rank1.refreshEnergy 28862879760.000004                       # Energy for refresh commands per rank (pJ) (Joule)
system.mem_ctrl.dram.rank1.actBackEnergy   7254632250                       # Energy for active background per rank (pJ) (Joule)
system.mem_ctrl.dram.rank1.preBackEnergy 134296212960                       # Energy for precharge background per rank (pJ) (Joule)
system.mem_ctrl.dram.rank1.actPowerDownEnergy            0                       # Energy for active power-down per rank (pJ) (Joule)
system.mem_ctrl.dram.rank1.prePowerDownEnergy            0                       # Energy for precharge power-down per rank (pJ) (Joule)
system.mem_ctrl.dram.rank1.selfRefreshEnergy            0                       # Energy for self refresh per rank (pJ) (Joule)
system.mem_ctrl.dram.rank1.totalEnergy   170475133620                       # Total energy per rank (pJ) (Joule)
system.mem_ctrl.dram.rank1.averagePower    466.238921                       # Core power per rank (mW) (Watt)  
system.mem_ctrl.dram.rank1.totalIdleTime            0                       # Total Idle time Per DRAM Rank (Tick)
system.mem_ctrl.dram.rank1.pwrStateTime::IDLE 349040799000                       # Time in different power states (Tick)
system.mem_ctrl.dram.rank1.pwrStateTime::REF  12209340000                       # Time in different power states (Tick)
system.mem_ctrl.dram.rank1.pwrStateTime::SREF            0                       # Time in different power states (Tick)
system.mem_ctrl.dram.rank1.pwrStateTime::PRE_PDN            0                       # Time in different power states (Tick)
system.mem_ctrl.dram.rank1.pwrStateTime::ACT   4388863000                       # Time in different power states (Tick)
system.mem_ctrl.dram.rank1.pwrStateTime::ACT_PDN            0                       # Time in different power states (Tick)
system.mem_ctrl.power_state.pwrStateResidencyTicks::UNDEFINED 365639002000                       # Cumulative time (in ticks) in various power states (Tick)
system.membus.transDist::ReadResp                1260                       # Transaction distribution (Count) 
system.membus.transDist::CleanEvict                39                       # Transaction distribution (Count) 
system.membus.transDist::ReadExReq               6276                       # Transaction distribution (Count) 
system.membus.transDist::ReadExResp              6276                       # Transaction distribution (Count) 
system.membus.transDist::ReadSharedReq           1260                       # Transaction distribution (Count) 
system.membus.pktCount_system.l3cache.mem_side_port::system.mem_ctrl.port        15111                       # Packet count per connected requestor and responder (Count)
system.membus.pktCount_system.l3cache.mem_side_port::total        15111                       # Packet count per connected requestor and responder (Count)
system.membus.pktCount::total                   15111                       # Packet count per connected requestor and responder (Count)
system.membus.pktSize_system.l3cache.mem_side_port::system.mem_ctrl.port       482304                       # Cumulative packet size per connected requestor and responder (Byte)
system.membus.pktSize_system.l3cache.mem_side_port::total       482304                       # Cumulative packet size per connected requestor and responder (Byte)
system.membus.pktSize::total                   482304                       # Cumulative packet size per connected requestor and responder (Byte)
system.membus.snoops                                0                       # Total snoops (Count)
system.membus.snoopTraffic                          0                       # Total snoop traffic (Byte)       
system.membus.snoopFanout::samples               7536                       # Request fanout histogram (Count) 
system.membus.snoopFanout::mean                     0                       # Request fanout histogram (Count) 
system.membus.snoopFanout::stdev                    0                       # Request fanout histogram (Count) 
system.membus.snoopFanout::underflows               0      0.00%      0.00% # Request fanout histogram (Count) 
system.membus.snoopFanout::0                     7536    100.00%    100.00% # Request fanout histogram (Count) 
system.membus.snoopFanout::1                        0      0.00%    100.00% # Request fanout histogram (Count) 
system.membus.snoopFanout::overflows                0      0.00%    100.00% # Request fanout histogram (Count) 
system.membus.snoopFanout::min_value                0                       # Request fanout histogram (Count) 
system.membus.snoopFanout::max_value                0                       # Request fanout histogram (Count) 
system.membus.snoopFanout::total                 7536                       # Request fanout histogram (Count) 
system.membus.power_state.pwrStateResidencyTicks::UNDEFINED 365639002000                       # Cumulative time (in ticks) in various power states (Tick)
system.membus.reqLayer2.occupancy             7575000                       # Layer occupancy (ticks) (Tick)   
system.membus.reqLayer2.utilization               0.0                       # Layer utilization (Ratio)        
system.membus.respLayer0.occupancy           42325000                       # Layer occupancy (ticks) (Tick)   
system.membus.respLayer0.utilization              0.0                       # Layer utilization (Ratio)        
system.membus.snoop_filter.totRequests           7575                       # Total number of requests made to the snoop filter. (Count)
system.membus.snoop_filter.hitSingleRequests           39                       # Number of requests hitting in the snoop filter with a single holder of the requested data. (Count)
system.membus.snoop_filter.hitMultiRequests            0                       # Number of requests hitting in the snoop filter with multiple (>1) holders of the requested data. (Count)
system.membus.snoop_filter.totSnoops                0                       # Total number of snoops made to the snoop filter. (Count)
system.membus.snoop_filter.hitSingleSnoops            0                       # Number of snoops hitting in the snoop filter with a single holder of the requested data. (Count)
system.membus.snoop_filter.hitMultiSnoops            0                       # Number of snoops hitting in the snoop filter with multiple (>1) holders of the requested data. (Count)
system.workload.inst.arm                            0                       # number of arm instructions executed (Count)
system.workload.inst.quiesce                        0                       # number of quiesce instructions executed (Count)

---------- End Simulation Statistics   ----------