---------- Begin Simulation Statistics ----------
simSeconds                                   8.414368                       # Number of seconds simulated (Second)
simTicks                                 8414368249000                       # Number of ticks simulated (Tick)
finalTick                                8414368249000                       # Number of ticks from beginning of simulation (restored from checkpoints and never reset) (Tick)
simFreq                                  1000000000000                       # The number of ticks per simulated second ((Tick/Second))
hostSeconds                                    427.59                       # Real time elapsed on the host (Second)
hostTickRate                              19678673606                       # The number of ticks simulated per host second (ticks/s) ((Tick/Second))
hostMemory                                     676600                       # Number of bytes of host memory used (Byte)
simInsts                                     88767643                       # Number of instructions simulated (Count)
simOps                                      120776373                       # Number of ops (including micro ops) simulated (Count)
hostInstRate                                   207601                       # Simulator instruction rate (inst/s) ((Count/Second))
hostOpRate                                     282459                       # Simulator op (including micro ops) rate (op/s) ((Count/Second))
system.clk_domain.clock                          1000                       # Clock period in ticks (Tick)     
system.clk_domain.voltage_domain.voltage            1                       # Voltage in Volts (Volt)
system.cpu.numCycles                       8414368249                       # Number of cpu cycles simulated (Cycle)
system.cpu.cpi                              94.790923                       # CPI: cycles per instruction (core level) ((Cycle/Count))
system.cpu.ipc                               0.010550                       # IPC: instructions per cycle (core level) ((Count/Cycle))
system.cpu.numWorkItemsStarted                      0                       # Number of work items this cpu started (Count)
system.cpu.numWorkItemsCompleted                    0                       # Number of work items this cpu completed (Count)
system.cpu.commitStats0.numInsts             88767658                       # Number of instructions committed (thread level) (Count)
system.cpu.commitStats0.numOps              120776390                       # Number of ops (including micro ops) committed (thread level) (Count)
system.cpu.commitStats0.numInstsNotNOP              0                       # Number of instructions committed excluding NOPs or prefetches (Count)
system.cpu.commitStats0.numOpsNotNOP                0                       # Number of Ops (including micro ops) Simulated (Count)
system.cpu.commitStats0.cpi                 94.790923                       # CPI: cycles per instruction (thread level) ((Cycle/Count))
system.cpu.commitStats0.ipc                  0.010550                       # IPC: instructions per cycle (thread level) ((Count/Cycle))
system.cpu.commitStats0.numMemRefs                  0                       # Number of memory references committed (Count)
system.cpu.commitStats0.numFpInsts           19187116                       # Number of float instructions (Count)
system.cpu.commitStats0.numIntInsts         109863510                       # Number of integer instructions (Count)
system.cpu.commitStats0.numLoadInsts         28085662                       # Number of load instructions (Count)
system.cpu.commitStats0.numStoreInsts         4696845                       # Number of store instructions (Count)
system.cpu.commitStats0.numVecInsts                 0                       # Number of vector instructions (Count)
system.cpu.commitStats0.committedInstType::No_OpClass        98565      0.08%      0.08% # Class of committed instruction. (Count)
system.cpu.commitStats0.committedInstType::IntAlu     77179447     63.90%     63.98% # Class of committed instruction. (Count)
system.cpu.commitStats0.committedInstType::IntMult           41      0.00%     63.98% # Class of committed instruction. (Count)
system.cpu.commitStats0.committedInstType::IntDiv           21      0.00%     63.98% # Class of committed instruction. (Count)
system.cpu.commitStats0.committedInstType::FloatAdd      6324370      5.24%     69.22% # Class of committed instruction. (Count)
system.cpu.commitStats0.committedInstType::FloatCmp            0      0.00%     69.22% # Class of committed instruction. (Count)
system.cpu.commitStats0.committedInstType::FloatCvt            0      0.00%     69.22% # Class of committed instruction. (Count)
system.cpu.commitStats0.committedInstType::FloatMult            0      0.00%     69.22% # Class of committed instruction. (Count)
system.cpu.commitStats0.committedInstType::FloatMultAcc            0      0.00%     69.22% # Class of committed instruction. (Count)
system.cpu.commitStats0.committedInstType::FloatDiv            0      0.00%     69.22% # Class of committed instruction. (Count)
system.cpu.commitStats0.committedInstType::FloatMisc            0      0.00%     69.22% # Class of committed instruction. (Count)
system.cpu.commitStats0.committedInstType::FloatSqrt            0      0.00%     69.22% # Class of committed instruction. (Count)
system.cpu.commitStats0.committedInstType::SimdAdd           10      0.00%     69.22% # Class of committed instruction. (Count)
system.cpu.commitStats0.committedInstType::SimdAddAcc            0      0.00%     69.22% # Class of committed instruction. (Count)
system.cpu.commitStats0.committedInstType::SimdAlu        98531      0.08%     69.30% # Class of committed instruction. (Count)
system.cpu.commitStats0.committedInstType::SimdCmp            0      0.00%     69.30% # Class of committed instruction. (Count)
system.cpu.commitStats0.committedInstType::SimdCvt           66      0.00%     69.30% # Class of committed instruction. (Count)
system.cpu.commitStats0.committedInstType::SimdMisc        32989      0.03%     69.33% # Class of committed instruction. (Count)
system.cpu.commitStats0.committedInstType::SimdMult            0      0.00%     69.33% # Class of committed instruction. (Count)
system.cpu.commitStats0.committedInstType::SimdMultAcc            0      0.00%     69.33% # Class of committed instruction. (Count)
system.cpu.commitStats0.committedInstType::SimdMatMultAcc            0      0.00%     69.33% # Class of committed instruction. (Count)
system.cpu.commitStats0.committedInstType::SimdShift            3      0.00%     69.33% # Class of committed instruction. (Count)
system.cpu.commitStats0.committedInstType::SimdShiftAcc            0      0.00%     69.33% # Class of committed instruction. (Count)
system.cpu.commitStats0.committedInstType::SimdDiv            0      0.00%     69.33% # Class of committed instruction. (Count)
system.cpu.commitStats0.committedInstType::SimdSqrt            0      0.00%     69.33% # Class of committed instruction. (Count)
system.cpu.commitStats0.committedInstType::SimdFloatAdd      2097152      1.74%     71.07% # Class of committed instruction. (Count)
system.cpu.commitStats0.committedInstType::SimdFloatAlu            0      0.00%     71.07% # Class of committed instruction. (Count)
system.cpu.commitStats0.committedInstType::SimdFloatCmp            0      0.00%     71.07% # Class of committed instruction. (Count)
system.cpu.commitStats0.committedInstType::SimdFloatCvt        32768      0.03%     71.09% # Class of committed instruction. (Count)
system.cpu.commitStats0.committedInstType::SimdFloatDiv        32768      0.03%     71.12% # Class of committed instruction. (Count)
system.cpu.commitStats0.committedInstType::SimdFloatMisc            0      0.00%     71.12% # Class of committed instruction. (Count)
system.cpu.commitStats0.committedInstType::SimdFloatMult      2097152      1.74%     72.86% # Class of committed instruction. (Count)
system.cpu.commitStats0.committedInstType::SimdFloatMultAcc            0      0.00%     72.86% # Class of committed instruction. (Count)
system.cpu.commitStats0.committedInstType::SimdFloatMatMultAcc            0      0.00%     72.86% # Class of committed instruction. (Count)
system.cpu.commitStats0.committedInstType::SimdFloatSqrt            0      0.00%     72.86% # Class of committed instruction. (Count)
system.cpu.commitStats0.committedInstType::SimdReduceAdd            0      0.00%     72.86% # Class of committed instruction. (Count)
system.cpu.commitStats0.committedInstType::SimdReduceAlu            0      0.00%     72.86% # Class of committed instruction. (Count)
system.cpu.commitStats0.committedInstType::SimdReduceCmp            0      0.00%     72.86% # Class of committed instruction. (Count)
system.cpu.commitStats0.committedInstType::SimdFloatReduceAdd            0      0.00%     72.86% # Class of committed instruction. (Count)
system.cpu.commitStats0.committedInstType::SimdFloatReduceCmp            0      0.00%     72.86% # Class of committed instruction. (Count)
system.cpu.commitStats0.committedInstType::SimdAes            0      0.00%     72.86% # Class of committed instruction. (Count)
system.cpu.commitStats0.committedInstType::SimdAesMix            0      0.00%     72.86% # Class of committed instruction. (Count)
system.cpu.commitStats0.committedInstType::SimdSha1Hash            0      0.00%     72.86% # Class of committed instruction. (Count)
system.cpu.commitStats0.committedInstType::SimdSha1Hash2            0      0.00%     72.86% # Class of committed instruction. (Count)
system.cpu.commitStats0.committedInstType::SimdSha256Hash            0      0.00%     72.86% # Class of committed instruction. (Count)
system.cpu.commitStats0.committedInstType::SimdSha256Hash2            0      0.00%     72.86% # Class of committed instruction. (Count)
system.cpu.commitStats0.committedInstType::SimdShaSigma2            0      0.00%     72.86% # Class of committed instruction. (Count)
system.cpu.commitStats0.committedInstType::SimdShaSigma3            0      0.00%     72.86% # Class of committed instruction. (Count)
system.cpu.commitStats0.committedInstType::SimdPredAlu            0      0.00%     72.86% # Class of committed instruction. (Count)
system.cpu.commitStats0.committedInstType::Matrix            0      0.00%     72.86% # Class of committed instruction. (Count)
system.cpu.commitStats0.committedInstType::MatrixMov            0      0.00%     72.86% # Class of committed instruction. (Count)
system.cpu.commitStats0.committedInstType::MatrixOP            0      0.00%     72.86% # Class of committed instruction. (Count)
system.cpu.commitStats0.committedInstType::MemRead     21761321     18.02%     90.87% # Class of committed instruction. (Count)
system.cpu.commitStats0.committedInstType::MemWrite      2550026      2.11%     92.99% # Class of committed instruction. (Count)
system.cpu.commitStats0.committedInstType::FloatMemRead      6324341      5.24%     98.22% # Class of committed instruction. (Count)
system.cpu.commitStats0.committedInstType::FloatMemWrite      2146819      1.78%    100.00% # Class of committed instruction. (Count)
system.cpu.commitStats0.committedInstType::IprAccess            0      0.00%    100.00% # Class of committed instruction. (Count)
system.cpu.commitStats0.committedInstType::InstPrefetch            0      0.00%    100.00% # Class of committed instruction. (Count)
system.cpu.commitStats0.committedInstType::VectorUnitStrideLoad            0      0.00%    100.00% # Class of committed instruction. (Count)
system.cpu.commitStats0.committedInstType::VectorUnitStrideStore            0      0.00%    100.00% # Class of committed instruction. (Count)
system.cpu.commitStats0.committedInstType::VectorUnitStrideMaskLoad            0      0.00%    100.00% # Class of committed instruction. (Count)
system.cpu.commitStats0.committedInstType::VectorUnitStrideMaskStore            0      0.00%    100.00% # Class of committed instruction. (Count)
system.cpu.commitStats0.committedInstType::VectorStridedLoad            0      0.00%    100.00% # Class of committed instruction. (Count)
system.cpu.commitStats0.committedInstType::VectorStridedStore            0      0.00%    100.00% # Class of committed instruction. (Count)
system.cpu.commitStats0.committedInstType::VectorIndexedLoad            0      0.00%    100.00% # Class of committed instruction. (Count)
system.cpu.commitStats0.committedInstType::VectorIndexedStore            0      0.00%    100.00% # Class of committed instruction. (Count)
system.cpu.commitStats0.committedInstType::VectorUnitStrideFaultOnlyFirstLoad            0      0.00%    100.00% # Class of committed instruction. (Count)
system.cpu.commitStats0.committedInstType::VectorWholeRegisterLoad            0      0.00%    100.00% # Class of committed instruction. (Count)
system.cpu.commitStats0.committedInstType::VectorWholeRegisterStore            0      0.00%    100.00% # Class of committed instruction. (Count)
system.cpu.commitStats0.committedInstType::VectorIntegerArith            0      0.00%    100.00% # Class of committed instruction. (Count)
system.cpu.commitStats0.committedInstType::VectorFloatArith            0      0.00%    100.00% # Class of committed instruction. (Count)
system.cpu.commitStats0.committedInstType::VectorFloatConvert            0      0.00%    100.00% # Class of committed instruction. (Count)
system.cpu.commitStats0.committedInstType::VectorIntegerReduce            0      0.00%    100.00% # Class of committed instruction. (Count)
system.cpu.commitStats0.committedInstType::VectorFloatReduce            0      0.00%    100.00% # Class of committed instruction. (Count)
system.cpu.commitStats0.committedInstType::VectorMisc            0      0.00%    100.00% # Class of committed instruction. (Count)
system.cpu.commitStats0.committedInstType::VectorIntegerExtension            0      0.00%    100.00% # Class of committed instruction. (Count)
system.cpu.commitStats0.committedInstType::VectorConfig            0      0.00%    100.00% # Class of committed instruction. (Count)
system.cpu.commitStats0.committedInstType::total    120776390                       # Class of committed instruction. (Count)
system.cpu.commitStats0.committedControl::IsControl      2655263                       # Class of control type instructions committed (Count)
system.cpu.commitStats0.committedControl::IsDirectControl      2552447                       # Class of control type instructions committed (Count)
system.cpu.commitStats0.committedControl::IsIndirectControl       102816                       # Class of control type instructions committed (Count)
system.cpu.commitStats0.committedControl::IsCondControl      2430812                       # Class of control type instructions committed (Count)
system.cpu.commitStats0.committedControl::IsUncondControl       224451                       # Class of control type instructions committed (Count)
system.cpu.commitStats0.committedControl::IsCall       100646                       # Class of control type instructions committed (Count)
system.cpu.commitStats0.committedControl::IsReturn       100641                       # Class of control type instructions committed (Count)
system.cpu.exec_context.thread_0.numMatAluAccesses            0                       # Number of matrix alu accesses (Count)
system.cpu.exec_context.thread_0.numCallsReturns       201287                       # Number of times a function call or return occured (Count)
system.cpu.exec_context.thread_0.numMatInsts            0                       # Number of matrix instructions (Count)
system.cpu.exec_context.thread_0.numIdleCycles     0.001000                       # Number of idle cycles (Cycle)
system.cpu.exec_context.thread_0.numBusyCycles 8414368248.999001                       # Number of busy cycles (Cycle)
system.cpu.exec_context.thread_0.notIdleFraction     1.000000                       # Percentage of non-idle cycles (Ratio)
system.cpu.exec_context.thread_0.idleFraction     0.000000                       # Percentage of idle cycles (Ratio)
system.cpu.executeStats0.numInsts                   0                       # Number of executed instructions (Count)
system.cpu.executeStats0.numNop                     0                       # Number of nop insts executed (Count)
system.cpu.executeStats0.numBranches                0                       # Number of branches executed (Count)
system.cpu.executeStats0.numLoadInsts               0                       # Number of load instructions executed (Count)
system.cpu.executeStats0.numStoreInsts       32782507                       # Number of stores executed (Count)
system.cpu.executeStats0.instRate                   0                       # Inst execution rate ((Count/Cycle))
system.cpu.executeStats0.numFpAluAccesses     19187116                       # Number of float alu accesses (Count)
system.cpu.executeStats0.numFpRegReads       15124176                       # Number of times the floating registers were read (Count)
system.cpu.executeStats0.numFpRegWrites      17040240                       # Number of times the floating registers were written (Count)
system.cpu.executeStats0.numIntAluAccesses    109863510                       # Number of integer alu accesses (Count)
system.cpu.executeStats0.numIntRegReads     152977912                       # Number of times the integer registers were read (Count)
system.cpu.executeStats0.numIntRegWrites     93755510                       # Number of times the integer registers were written (Count)
system.cpu.executeStats0.numMemRefs          32782507                       # Number of memory refs (Count)    
system.cpu.executeStats0.numMiscRegReads     46561522                       # Number of times the Misc registers were read (Count)
system.cpu.executeStats0.numVecAluAccesses            0                       # Number of vector alu accesses (Count)
system.cpu.executeStats0.numDiscardedOps            0                       # Number of ops (including micro ops) which were discarded before commit (Count)
system.cpu.fetchStats0.numInsts              88767658                       # Number of instructions fetched (thread level) (Count)
system.cpu.fetchStats0.numOps               120776390                       # Number of ops (including micro ops) fetched (thread level) (Count)
system.cpu.fetchStats0.fetchRate             0.010550                       # Number of inst fetches per cycle ((Count/Cycle))
system.cpu.fetchStats0.numBranches            2655263                       # Number of branches fetched (Count)
system.cpu.fetchStats0.branchRate            0.000316                       # Number of branch fetches per cycle (Ratio)
system.cpu.fetchStats0.numFetchSuspends             0                       # Number of times Execute suspended instruction fetching (Count)
system.cpu.interrupts.clk_domain.clock          16000                       # Clock period in ticks (Tick)     
system.cpu.mmu.dtb.rdAccesses                28085664                       # TLB accesses on read requests (Count)
system.cpu.mmu.dtb.wrAccesses                 4696845                       # TLB accesses on write requests (Count)
system.cpu.mmu.dtb.rdMisses                       116                       # TLB misses on read requests (Count)
system.cpu.mmu.dtb.wrMisses                       108                       # TLB misses on write requests (Count)
system.cpu.mmu.dtb.walker.power_state.pwrStateResidencyTicks::UNDEFINED 8414368249000                       # Cumulative time (in ticks) in various power states (Tick)
system.cpu.mmu.itb.rdAccesses                       0                       # TLB accesses on read requests (Count)
system.cpu.mmu.itb.wrAccesses               123249188                       # TLB accesses on write requests (Count)
system.cpu.mmu.itb.rdMisses                         0                       # TLB misses on read requests (Count)
system.cpu.mmu.itb.wrMisses                        43                       # TLB misses on write requests (Count)
system.cpu.mmu.itb.walker.power_state.pwrStateResidencyTicks::UNDEFINED 8414368249000                       # Cumulative time (in ticks) in various power states (Tick)
system.cpu.power_state.pwrStateResidencyTicks::ON 8414368249000                       # Cumulative time (in ticks) in various power states (Tick)
system.cpu.thread_0.numInsts                        0                       # Number of Instructions committed (Count)
system.cpu.thread_0.numOps                          0                       # Number of Ops committed (Count)  
system.cpu.thread_0.numMemRefs                      0                       # Number of Memory References (Count)
system.cpu.workload.numSyscalls                    14                       # Number of system calls (Count)   
system.mem_ctrl.avgPriority_cpu.inst::samples 123249188.00                       # Average QoS priority value for accepted requests (Count)
system.mem_ctrl.avgPriority_cpu.data::samples  18958100.00                       # Average QoS priority value for accepted requests (Count)
system.mem_ctrl.priorityMinLatency       0.000000022500                       # per QoS priority minimum request to response latency (Second)
system.mem_ctrl.priorityMaxLatency       0.496860128500                       # per QoS priority maximum request to response latency (Second)
system.mem_ctrl.numReadWriteTurnArounds          1564                       # Number of turnarounds from READ to WRITE (Count)
system.mem_ctrl.numWriteReadTurnArounds          1564                       # Number of turnarounds from WRITE to READ (Count)
system.mem_ctrl.numStayReadState            291225575                       # Number of times bus staying in READ state (Count)
system.mem_ctrl.numStayWriteState               23483                       # Number of times bus staying in WRITE state (Count)
system.mem_ctrl.readReqs                    151334851                       # Number of read requests accepted (Count)
system.mem_ctrl.writeReqs                     4696843                       # Number of write requests accepted (Count)
system.mem_ctrl.readBursts                  151334859                       # Number of controller read bursts, including those serviced by the write queue (Count)
system.mem_ctrl.writeBursts                   4696843                       # Number of controller write bursts, including those merged in the write queue (Count)
system.mem_ctrl.servicedByWrQ                 9152620                       # Number of controller read bursts serviced by the write queue (Count)
system.mem_ctrl.mergedWrBursts                4671794                       # Number of controller write bursts merged with an existing one (Count)
system.mem_ctrl.neitherReadNorWriteReqs             0                       # Number of requests that are neither read nor write (Count)
system.mem_ctrl.avgRdQLen                        1.00                       # Average read queue length when enqueuing ((Count/Tick))
system.mem_ctrl.avgWrQLen                       25.28                       # Average write queue length when enqueuing ((Count/Tick))
system.mem_ctrl.numRdRetry                          0                       # Number of times read queue was full causing retry (Count)
system.mem_ctrl.numWrRetry                          0                       # Number of times write queue was full causing retry (Count)
system.mem_ctrl.readPktSize::0                   1419                       # Read request sizes (log2) (Count)
system.mem_ctrl.readPktSize::1                     14                       # Read request sizes (log2) (Count)
system.mem_ctrl.readPktSize::2               21355793                       # Read request sizes (log2) (Count)
system.mem_ctrl.readPktSize::3              129977633                       # Read request sizes (log2) (Count)
system.mem_ctrl.readPktSize::4                      0                       # Read request sizes (log2) (Count)
system.mem_ctrl.readPktSize::5                      0                       # Read request sizes (log2) (Count)
system.mem_ctrl.readPktSize::6                      0                       # Read request sizes (log2) (Count)
system.mem_ctrl.writePktSize::0                  1075                       # Write request sizes (log2) (Count)
system.mem_ctrl.writePktSize::1                     5                       # Write request sizes (log2) (Count)
system.mem_ctrl.writePktSize::2               2278054                       # Write request sizes (log2) (Count)
system.mem_ctrl.writePktSize::3               2417709                       # Write request sizes (log2) (Count)
system.mem_ctrl.writePktSize::4                     0                       # Write request sizes (log2) (Count)
system.mem_ctrl.writePktSize::5                     0                       # Write request sizes (log2) (Count)
system.mem_ctrl.writePktSize::6                     0                       # Write request sizes (log2) (Count)
system.mem_ctrl.rdQLenPdf::0                142182229                       # What read queue length does an incoming req see (Count)
system.mem_ctrl.rdQLenPdf::1                       10                       # What read queue length does an incoming req see (Count)
system.mem_ctrl.rdQLenPdf::2                        0                       # What read queue length does an incoming req see (Count)
system.mem_ctrl.rdQLenPdf::3                        0                       # What read queue length does an incoming req see (Count)
system.mem_ctrl.rdQLenPdf::4                        0                       # What read queue length does an incoming req see (Count)
system.mem_ctrl.rdQLenPdf::5                        0                       # What read queue length does an incoming req see (Count)
system.mem_ctrl.rdQLenPdf::6                        0                       # What read queue length does an incoming req see (Count)
system.mem_ctrl.rdQLenPdf::7                        0                       # What read queue length does an incoming req see (Count)
system.mem_ctrl.rdQLenPdf::8                        0                       # What read queue length does an incoming req see (Count)
system.mem_ctrl.rdQLenPdf::9                        0                       # What read queue length does an incoming req see (Count)
system.mem_ctrl.rdQLenPdf::10                       0                       # What read queue length does an incoming req see (Count)
system.mem_ctrl.rdQLenPdf::11                       0                       # What read queue length does an incoming req see (Count)
system.mem_ctrl.rdQLenPdf::12                       0                       # What read queue length does an incoming req see (Count)
system.mem_ctrl.rdQLenPdf::13                       0                       # What read queue length does an incoming req see (Count)
system.mem_ctrl.rdQLenPdf::14                       0                       # What read queue length does an incoming req see (Count)
system.mem_ctrl.rdQLenPdf::15                       0                       # What read queue length does an incoming req see (Count)
system.mem_ctrl.rdQLenPdf::16                       0                       # What read queue length does an incoming req see (Count)
system.mem_ctrl.rdQLenPdf::17                       0                       # What read queue length does an incoming req see (Count)
system.mem_ctrl.rdQLenPdf::18                       0                       # What read queue length does an incoming req see (Count)
system.mem_ctrl.rdQLenPdf::19                       0                       # What read queue length does an incoming req see (Count)
system.mem_ctrl.rdQLenPdf::20                       0                       # What read queue length does an incoming req see (Count)
system.mem_ctrl.rdQLenPdf::21                       0                       # What read queue length does an incoming req see (Count)
system.mem_ctrl.rdQLenPdf::22                       0                       # What read queue length does an incoming req see (Count)
system.mem_ctrl.rdQLenPdf::23                       0                       # What read queue length does an incoming req see (Count)
system.mem_ctrl.rdQLenPdf::24                       0                       # What read queue length does an incoming req see (Count)
system.mem_ctrl.rdQLenPdf::25                       0                       # What read queue length does an incoming req see (Count)
system.mem_ctrl.rdQLenPdf::26                       0                       # What read queue length does an incoming req see (Count)
system.mem_ctrl.rdQLenPdf::27                       0                       # What read queue length does an incoming req see (Count)
system.mem_ctrl.rdQLenPdf::28                       0                       # What read queue length does an incoming req see (Count)
system.mem_ctrl.rdQLenPdf::29                       0                       # What read queue length does an incoming req see (Count)
system.mem_ctrl.rdQLenPdf::30                       0                       # What read queue length does an incoming req see (Count)
system.mem_ctrl.rdQLenPdf::31                       0                       # What read queue length does an incoming req see (Count)
system.mem_ctrl.wrQLenPdf::0                        1                       # What write queue length does an incoming req see (Count)
system.mem_ctrl.wrQLenPdf::1                        1                       # What write queue length does an incoming req see (Count)
system.mem_ctrl.wrQLenPdf::2                        1                       # What write queue length does an incoming req see (Count)
system.mem_ctrl.wrQLenPdf::3                        1                       # What write queue length does an incoming req see (Count)
system.mem_ctrl.wrQLenPdf::4                        1                       # What write queue length does an incoming req see (Count)
system.mem_ctrl.wrQLenPdf::5                        1                       # What write queue length does an incoming req see (Count)
system.mem_ctrl.wrQLenPdf::6                        1                       # What write queue length does an incoming req see (Count)
system.mem_ctrl.wrQLenPdf::7                        1                       # What write queue length does an incoming req see (Count)
system.mem_ctrl.wrQLenPdf::8                        1                       # What write queue length does an incoming req see (Count)
system.mem_ctrl.wrQLenPdf::9                        1                       # What write queue length does an incoming req see (Count)
system.mem_ctrl.wrQLenPdf::10                       1                       # What write queue length does an incoming req see (Count)
system.mem_ctrl.wrQLenPdf::11                       1                       # What write queue length does an incoming req see (Count)
system.mem_ctrl.wrQLenPdf::12                       1                       # What write queue length does an incoming req see (Count)
system.mem_ctrl.wrQLenPdf::13                       1                       # What write queue length does an incoming req see (Count)
system.mem_ctrl.wrQLenPdf::14                       1                       # What write queue length does an incoming req see (Count)
system.mem_ctrl.wrQLenPdf::15                       2                       # What write queue length does an incoming req see (Count)
system.mem_ctrl.wrQLenPdf::16                       2                       # What write queue length does an incoming req see (Count)
system.mem_ctrl.wrQLenPdf::17                    1564                       # What write queue length does an incoming req see (Count)
system.mem_ctrl.wrQLenPdf::18                    1566                       # What write queue length does an incoming req see (Count)
system.mem_ctrl.wrQLenPdf::19                    1565                       # What write queue length does an incoming req see (Count)
system.mem_ctrl.wrQLenPdf::20                    1565                       # What write queue length does an incoming req see (Count)
system.mem_ctrl.wrQLenPdf::21                    1564                       # What write queue length does an incoming req see (Count)
system.mem_ctrl.wrQLenPdf::22                    1564                       # What write queue length does an incoming req see (Count)
system.mem_ctrl.wrQLenPdf::23                    1565                       # What write queue length does an incoming req see (Count)
system.mem_ctrl.wrQLenPdf::24                    1564                       # What write queue length does an incoming req see (Count)
system.mem_ctrl.wrQLenPdf::25                    1564                       # What write queue length does an incoming req see (Count)
system.mem_ctrl.wrQLenPdf::26                    1564                       # What write queue length does an incoming req see (Count)
system.mem_ctrl.wrQLenPdf::27                    1564                       # What write queue length does an incoming req see (Count)
system.mem_ctrl.wrQLenPdf::28                    1565                       # What write queue length does an incoming req see (Count)
system.mem_ctrl.wrQLenPdf::29                    1564                       # What write queue length does an incoming req see (Count)
system.mem_ctrl.wrQLenPdf::30                    1564                       # What write queue length does an incoming req see (Count)
system.mem_ctrl.wrQLenPdf::31                    1564                       # What write queue length does an incoming req see (Count)
system.mem_ctrl.wrQLenPdf::32                    1564                       # What write queue length does an incoming req see (Count)
system.mem_ctrl.wrQLenPdf::33                       0                       # What write queue length does an incoming req see (Count)
system.mem_ctrl.wrQLenPdf::34                       0                       # What write queue length does an incoming req see (Count)
system.mem_ctrl.wrQLenPdf::35                       0                       # What write queue length does an incoming req see (Count)
system.mem_ctrl.wrQLenPdf::36                       0                       # What write queue length does an incoming req see (Count)
system.mem_ctrl.wrQLenPdf::37                       0                       # What write queue length does an incoming req see (Count)
system.mem_ctrl.wrQLenPdf::38                       0                       # What write queue length does an incoming req see (Count)
system.mem_ctrl.wrQLenPdf::39                       0                       # What write queue length does an incoming req see (Count)
system.mem_ctrl.wrQLenPdf::40                       0                       # What write queue length does an incoming req see (Count)
system.mem_ctrl.wrQLenPdf::41                       0                       # What write queue length does an incoming req see (Count)
system.mem_ctrl.wrQLenPdf::42                       0                       # What write queue length does an incoming req see (Count)
system.mem_ctrl.wrQLenPdf::43                       0                       # What write queue length does an incoming req see (Count)
system.mem_ctrl.wrQLenPdf::44                       0                       # What write queue length does an incoming req see (Count)
system.mem_ctrl.wrQLenPdf::45                       0                       # What write queue length does an incoming req see (Count)
system.mem_ctrl.wrQLenPdf::46                       0                       # What write queue length does an incoming req see (Count)
system.mem_ctrl.wrQLenPdf::47                       0                       # What write queue length does an incoming req see (Count)
system.mem_ctrl.wrQLenPdf::48                       0                       # What write queue length does an incoming req see (Count)
system.mem_ctrl.wrQLenPdf::49                       0                       # What write queue length does an incoming req see (Count)
system.mem_ctrl.wrQLenPdf::50                       0                       # What write queue length does an incoming req see (Count)
system.mem_ctrl.wrQLenPdf::51                       0                       # What write queue length does an incoming req see (Count)
system.mem_ctrl.wrQLenPdf::52                       0                       # What write queue length does an incoming req see (Count)
system.mem_ctrl.wrQLenPdf::53                       0                       # What write queue length does an incoming req see (Count)
system.mem_ctrl.wrQLenPdf::54                       0                       # What write queue length does an incoming req see (Count)
system.mem_ctrl.wrQLenPdf::55                       0                       # What write queue length does an incoming req see (Count)
system.mem_ctrl.wrQLenPdf::56                       0                       # What write queue length does an incoming req see (Count)
system.mem_ctrl.wrQLenPdf::57                       0                       # What write queue length does an incoming req see (Count)
system.mem_ctrl.wrQLenPdf::58                       0                       # What write queue length does an incoming req see (Count)
system.mem_ctrl.wrQLenPdf::59                       0                       # What write queue length does an incoming req see (Count)
system.mem_ctrl.wrQLenPdf::60                       0                       # What write queue length does an incoming req see (Count)
system.mem_ctrl.wrQLenPdf::61                       0                       # What write queue length does an incoming req see (Count)
system.mem_ctrl.wrQLenPdf::62                       0                       # What write queue length does an incoming req see (Count)
system.mem_ctrl.wrQLenPdf::63                       0                       # What write queue length does an incoming req see (Count)
system.mem_ctrl.rdPerTurnAround::samples         1564                       # Reads before turning the bus around for writes (Count)
system.mem_ctrl.rdPerTurnAround::mean    90909.218031                       # Reads before turning the bus around for writes (Count)
system.mem_ctrl.rdPerTurnAround::gmean    7034.050505                       # Reads before turning the bus around for writes (Count)
system.mem_ctrl.rdPerTurnAround::stdev   193281.252512                       # Reads before turning the bus around for writes (Count)
system.mem_ctrl.rdPerTurnAround::0-32767         1294     82.74%     82.74% # Reads before turning the bus around for writes (Count)
system.mem_ctrl.rdPerTurnAround::65536-98303            1      0.06%     82.80% # Reads before turning the bus around for writes (Count)
system.mem_ctrl.rdPerTurnAround::163840-196607            1      0.06%     82.86% # Reads before turning the bus around for writes (Count)
system.mem_ctrl.rdPerTurnAround::393216-425983            1      0.06%     82.93% # Reads before turning the bus around for writes (Count)
system.mem_ctrl.rdPerTurnAround::458752-491519           22      1.41%     84.34% # Reads before turning the bus around for writes (Count)
system.mem_ctrl.rdPerTurnAround::491520-524287          145      9.27%     93.61% # Reads before turning the bus around for writes (Count)
system.mem_ctrl.rdPerTurnAround::524288-557055          100      6.39%    100.00% # Reads before turning the bus around for writes (Count)
system.mem_ctrl.rdPerTurnAround::total           1564                       # Reads before turning the bus around for writes (Count)
system.mem_ctrl.wrPerTurnAround::samples         1564                       # Writes before turning the bus around for reads (Count)
system.mem_ctrl.wrPerTurnAround::mean       16.002558                       # Writes before turning the bus around for reads (Count)
system.mem_ctrl.wrPerTurnAround::gmean      16.002283                       # Writes before turning the bus around for reads (Count)
system.mem_ctrl.wrPerTurnAround::stdev       0.101144                       # Writes before turning the bus around for reads (Count)
system.mem_ctrl.wrPerTurnAround::16              1563     99.94%     99.94% # Writes before turning the bus around for reads (Count)
system.mem_ctrl.wrPerTurnAround::20                 1      0.06%    100.00% # Writes before turning the bus around for reads (Count)
system.mem_ctrl.wrPerTurnAround::total           1564                       # Writes before turning the bus around for reads (Count)
system.mem_ctrl.bytesReadWrQ                292883840                       # Total number of bytes read from write queue (Byte)
system.mem_ctrl.bytesReadSys               1125245675                       # Total read bytes from the system interface side (Byte)
system.mem_ctrl.bytesWrittenSys              28454973                       # Total written bytes from the system interface side (Byte)
system.mem_ctrl.avgRdBWSys               133729074.09106192                       # Average system read bandwidth in Byte/s ((Byte/Second))
system.mem_ctrl.avgWrBWSys               3381712.34701806                       # Average system write bandwidth in Byte/s ((Byte/Second))
system.mem_ctrl.totGap                   8414368113000                       # Total gap between requests (Tick)
system.mem_ctrl.avgGap                       53927.30                       # Average gap between requests ((Tick/Count))
system.mem_ctrl.requestorReadBytes::cpu.inst    985993504                       # Per-requestor bytes read from memory (Byte)
system.mem_ctrl.requestorReadBytes::cpu.data    100165851                       # Per-requestor bytes read from memory (Byte)
system.mem_ctrl.requestorWriteBytes::cpu.data       181124                       # Per-requestor bytes write to memory (Byte)
system.mem_ctrl.requestorReadRate::cpu.inst 117179742.414670243859                       # Per-requestor bytes read from memory rate ((Byte/Second))
system.mem_ctrl.requestorReadRate::cpu.data 11904143.963737757877                       # Per-requestor bytes read from memory rate ((Byte/Second))
system.mem_ctrl.requestorWriteRate::cpu.data 21525.561354118956                       # Per-requestor bytes write to memory rate ((Byte/Second))
system.mem_ctrl.requestorReadAccesses::cpu.inst    123249188                       # Per-requestor read serviced memory accesses (Count)
system.mem_ctrl.requestorReadAccesses::cpu.data     28085671                       # Per-requestor read serviced memory accesses (Count)
system.mem_ctrl.requestorWriteAccesses::cpu.data      4696843                       # Per-requestor write serviced memory accesses (Count)
system.mem_ctrl.requestorReadTotalLat::cpu.inst 3167151007500                       # Per-requestor read total memory access latency (Tick)
system.mem_ctrl.requestorReadTotalLat::cpu.data 629048815750                       # Per-requestor read total memory access latency (Tick)
system.mem_ctrl.requestorWriteTotalLat::cpu.data 209547278061000                       # Per-requestor write total memory access latency (Tick)
system.mem_ctrl.requestorReadAvgLat::cpu.inst     25697.13                       # Per-requestor read average memory access latency ((Tick/Count))
system.mem_ctrl.requestorReadAvgLat::cpu.data     22397.50                       # Per-requestor read average memory access latency ((Tick/Count))
system.mem_ctrl.requestorWriteAvgLat::cpu.data  44614494.90                       # Per-requestor write average memory access latency ((Tick/Count))
system.mem_ctrl.dram.bytesRead::cpu.inst    985993504                       # Number of bytes read from this memory (Byte)
system.mem_ctrl.dram.bytesRead::cpu.data    139252171                       # Number of bytes read from this memory (Byte)
system.mem_ctrl.dram.bytesRead::total      1125245675                       # Number of bytes read from this memory (Byte)
system.mem_ctrl.dram.bytesInstRead::cpu.inst    985993504                       # Number of instructions bytes read from this memory (Byte)
system.mem_ctrl.dram.bytesInstRead::total    985993504                       # Number of instructions bytes read from this memory (Byte)
system.mem_ctrl.dram.bytesWritten::cpu.data     28454973                       # Number of bytes written to this memory (Byte)
system.mem_ctrl.dram.bytesWritten::total     28454973                       # Number of bytes written to this memory (Byte)
system.mem_ctrl.dram.numReads::cpu.inst     123249188                       # Number of read requests responded to by this memory (Count)
system.mem_ctrl.dram.numReads::cpu.data      28085663                       # Number of read requests responded to by this memory (Count)
system.mem_ctrl.dram.numReads::total        151334851                       # Number of read requests responded to by this memory (Count)
system.mem_ctrl.dram.numWrites::cpu.data      4696843                       # Number of write requests responded to by this memory (Count)
system.mem_ctrl.dram.numWrites::total         4696843                       # Number of write requests responded to by this memory (Count)
system.mem_ctrl.dram.bwRead::cpu.inst       117179742                       # Total read bandwidth from this memory ((Byte/Second))
system.mem_ctrl.dram.bwRead::cpu.data        16549332                       # Total read bandwidth from this memory ((Byte/Second))
system.mem_ctrl.dram.bwRead::total          133729074                       # Total read bandwidth from this memory ((Byte/Second))
system.mem_ctrl.dram.bwInstRead::cpu.inst    117179742                       # Instruction read bandwidth from this memory ((Byte/Second))
system.mem_ctrl.dram.bwInstRead::total      117179742                       # Instruction read bandwidth from this memory ((Byte/Second))
system.mem_ctrl.dram.bwWrite::cpu.data        3381712                       # Write bandwidth from this memory ((Byte/Second))
system.mem_ctrl.dram.bwWrite::total           3381712                       # Write bandwidth from this memory ((Byte/Second))
system.mem_ctrl.dram.bwTotal::cpu.inst      117179742                       # Total bandwidth to/from this memory ((Byte/Second))
system.mem_ctrl.dram.bwTotal::cpu.data       19931044                       # Total bandwidth to/from this memory ((Byte/Second))
system.mem_ctrl.dram.bwTotal::total         137110786                       # Total bandwidth to/from this memory ((Byte/Second))
system.mem_ctrl.dram.readBursts             142182239                       # Number of DRAM read bursts (Count)
system.mem_ctrl.dram.writeBursts                25028                       # Number of DRAM write bursts (Count)
system.mem_ctrl.dram.perBankRdBursts::0        980099                       # Per bank write bursts (Count)    
system.mem_ctrl.dram.perBankRdBursts::1        725041                       # Per bank write bursts (Count)    
system.mem_ctrl.dram.perBankRdBursts::2        724103                       # Per bank write bursts (Count)    
system.mem_ctrl.dram.perBankRdBursts::3      14881308                       # Per bank write bursts (Count)    
system.mem_ctrl.dram.perBankRdBursts::4       1904040                       # Per bank write bursts (Count)    
system.mem_ctrl.dram.perBankRdBursts::5        723256                       # Per bank write bursts (Count)    
system.mem_ctrl.dram.perBankRdBursts::6     121519960                       # Per bank write bursts (Count)    
system.mem_ctrl.dram.perBankRdBursts::7        724432                       # Per bank write bursts (Count)    
system.mem_ctrl.dram.perBankWrBursts::0          5749                       # Per bank write bursts (Count)    
system.mem_ctrl.dram.perBankWrBursts::1          2209                       # Per bank write bursts (Count)    
system.mem_ctrl.dram.perBankWrBursts::2          2899                       # Per bank write bursts (Count)    
system.mem_ctrl.dram.perBankWrBursts::3          5625                       # Per bank write bursts (Count)    
system.mem_ctrl.dram.perBankWrBursts::4          2153                       # Per bank write bursts (Count)    
system.mem_ctrl.dram.perBankWrBursts::5          2123                       # Per bank write bursts (Count)    
system.mem_ctrl.dram.perBankWrBursts::6          2099                       # Per bank write bursts (Count)    
system.mem_ctrl.dram.perBankWrBursts::7          2171                       # Per bank write bursts (Count)    
system.mem_ctrl.dram.totQLat             597099445750                       # Total ticks spent queuing (Tick) 
system.mem_ctrl.dram.totBusLat           1066366792500                       # Total ticks spent in databus transfers (Tick)
system.mem_ctrl.dram.totMemAccLat        3796199823250                       # Total ticks spent from burst creation until serviced by the DRAM (Tick)
system.mem_ctrl.dram.avgQLat                  4199.54                       # Average queueing delay per DRAM burst ((Tick/Count))
system.mem_ctrl.dram.avgBusLat                7500.00                       # Average bus latency per DRAM burst ((Tick/Count))
system.mem_ctrl.dram.avgMemAccLat            26699.54                       # Average memory access latency per DRAM burst ((Tick/Count))
system.mem_ctrl.dram.readRowHits            124244004                       # Number of row buffer hits during reads (Count)
system.mem_ctrl.dram.writeRowHits               21081                       # Number of row buffer hits during writes (Count)
system.mem_ctrl.dram.readRowHitRate             87.38                       # Row buffer hit rate for reads (Ratio)
system.mem_ctrl.dram.writeRowHitRate            84.23                       # Row buffer hit rate for writes (Ratio)
system.mem_ctrl.dram.bytesPerActivate::samples     17942177                       # Bytes accessed per row activation (Byte)
system.mem_ctrl.dram.bytesPerActivate::mean   253.627606                       # Bytes accessed per row activation (Byte)
system.mem_ctrl.dram.bytesPerActivate::gmean   142.842910                       # Bytes accessed per row activation (Byte)
system.mem_ctrl.dram.bytesPerActivate::stdev   208.031876                       # Bytes accessed per row activation (Byte)
system.mem_ctrl.dram.bytesPerActivate::0-63      6577753     36.66%     36.66% # Bytes accessed per row activation (Byte)
system.mem_ctrl.dram.bytesPerActivate::64-127       528032      2.94%     39.60% # Bytes accessed per row activation (Byte)
system.mem_ctrl.dram.bytesPerActivate::128-191       531567      2.96%     42.57% # Bytes accessed per row activation (Byte)
system.mem_ctrl.dram.bytesPerActivate::192-255      1918429     10.69%     53.26% # Bytes accessed per row activation (Byte)
system.mem_ctrl.dram.bytesPerActivate::256-319      1388050      7.74%     61.00% # Bytes accessed per row activation (Byte)
system.mem_ctrl.dram.bytesPerActivate::320-383       452215      2.52%     63.52% # Bytes accessed per row activation (Byte)
system.mem_ctrl.dram.bytesPerActivate::384-447       345259      1.92%     65.44% # Bytes accessed per row activation (Byte)
system.mem_ctrl.dram.bytesPerActivate::448-511        99322      0.55%     65.99% # Bytes accessed per row activation (Byte)
system.mem_ctrl.dram.bytesPerActivate::512-575      6101550     34.01%    100.00% # Bytes accessed per row activation (Byte)
system.mem_ctrl.dram.bytesPerActivate::total     17942177                       # Bytes accessed per row activation (Byte)
system.mem_ctrl.dram.bytesRead             4549831648                       # Total bytes read (Byte)
system.mem_ctrl.dram.bytesWritten              800896                       # Total bytes written (Byte)       
system.mem_ctrl.dram.avgRdBW               540.721717                       # Average DRAM read bandwidth in MiBytes/s ((Byte/Second))
system.mem_ctrl.dram.avgWrBW                 0.095182                       # Average DRAM write bandwidth in MiBytes/s ((Byte/Second))
system.mem_ctrl.dram.peakBW                   4266.00                       # Theoretical peak bandwidth in MiByte/s ((Byte/Second))
system.mem_ctrl.dram.busUtil                    12.68                       # Data bus utilization in percentage (Ratio)
system.mem_ctrl.dram.busUtilRead                12.68                       # Data bus utilization in percentage for reads (Ratio)
system.mem_ctrl.dram.busUtilWrite                0.00                       # Data bus utilization in percentage for writes (Ratio)
system.mem_ctrl.dram.pageHitRate                87.38                       # Row buffer hit rate, read and write combined (Ratio)
system.mem_ctrl.dram.power_state.pwrStateResidencyTicks::UNDEFINED 8414368249000                       # Cumulative time (in ticks) in various power states (Tick)
system.mem_ctrl.dram.rank0.actEnergy     54578933459.566330                       # Energy for activate commands per rank (pJ) (Joule)
system.mem_ctrl.dram.rank0.preEnergy     19226320138.119843                       # Energy for precharge commands per rank (pJ) (Joule)
system.mem_ctrl.dram.rank0.readEnergy    244221540859.316711                       # Energy for read commands per rank (pJ) (Joule)
system.mem_ctrl.dram.rank0.writeEnergy   38594978.016000                       # Energy for write commands per rank (pJ) (Joule)
system.mem_ctrl.dram.rank0.refreshEnergy 60154985495.402184                       # Energy for refresh commands per rank (pJ) (Joule)
system.mem_ctrl.dram.rank0.actBackEnergy 338046973329.147888                       # Energy for active background per rank (pJ) (Joule)
system.mem_ctrl.dram.rank0.preBackEnergy 2674164323.518874                       # Energy for precharge background per rank (pJ) (Joule)
system.mem_ctrl.dram.rank0.actPowerDownEnergy            0                       # Energy for active power-down per rank (pJ) (Joule)
system.mem_ctrl.dram.rank0.prePowerDownEnergy            0                       # Energy for precharge power-down per rank (pJ) (Joule)
system.mem_ctrl.dram.rank0.selfRefreshEnergy            0                       # Energy for self refresh per rank (pJ) (Joule)
system.mem_ctrl.dram.rank0.totalEnergy   718941512581.818481                       # Total energy per rank (pJ) (Joule)
system.mem_ctrl.dram.rank0.averagePower     85.442126                       # Core power per rank (mW) (Watt)  
system.mem_ctrl.dram.rank0.totalIdleTime            0                       # Total Idle time Per DRAM Rank (Tick)
system.mem_ctrl.dram.rank0.pwrStateTime::IDLE     60438000                       # Time in different power states (Tick)
system.mem_ctrl.dram.rank0.pwrStateTime::REF 281561800000                       # Time in different power states (Tick)
system.mem_ctrl.dram.rank0.pwrStateTime::SREF            0                       # Time in different power states (Tick)
system.mem_ctrl.dram.rank0.pwrStateTime::PRE_PDN            0                       # Time in different power states (Tick)
system.mem_ctrl.dram.rank0.pwrStateTime::ACT 8132746011000                       # Time in different power states (Tick)
system.mem_ctrl.dram.rank0.pwrStateTime::ACT_PDN            0                       # Time in different power states (Tick)
system.mem_ctrl.power_state.pwrStateResidencyTicks::UNDEFINED 8414368249000                       # Cumulative time (in ticks) in various power states (Tick)
system.membus.transDist::ReadReq            151269291                       # Transaction distribution (Count) 
system.membus.transDist::ReadResp           151269291                       # Transaction distribution (Count) 
system.membus.transDist::WriteReq             4631283                       # Transaction distribution (Count) 
system.membus.transDist::WriteResp            4631283                       # Transaction distribution (Count) 
system.membus.transDist::LockedRMWReadReq        65560                       # Transaction distribution (Count)
system.membus.transDist::LockedRMWReadResp        65560                       # Transaction distribution (Count)
system.membus.transDist::LockedRMWWriteReq        65560                       # Transaction distribution (Count)
system.membus.transDist::LockedRMWWriteResp        65560                       # Transaction distribution (Count)
system.membus.pktCount_system.cpu.icache_port::system.mem_ctrl.port    246498376                       # Packet count per connected requestor and responder (Count)
system.membus.pktCount_system.cpu.icache_port::total    246498376                       # Packet count per connected requestor and responder (Count)
system.membus.pktCount_system.cpu.dcache_port::system.mem_ctrl.port     65565012                       # Packet count per connected requestor and responder (Count)
system.membus.pktCount_system.cpu.dcache_port::total     65565012                       # Packet count per connected requestor and responder (Count)
system.membus.pktCount::total               312063388                       # Packet count per connected requestor and responder (Count)
system.membus.pktSize_system.cpu.icache_port::system.mem_ctrl.port    985993504                       # Cumulative packet size per connected requestor and responder (Byte)
system.membus.pktSize_system.cpu.icache_port::total    985993504                       # Cumulative packet size per connected requestor and responder (Byte)
system.membus.pktSize_system.cpu.dcache_port::system.mem_ctrl.port    167707144                       # Cumulative packet size per connected requestor and responder (Byte)
system.membus.pktSize_system.cpu.dcache_port::total    167707144                       # Cumulative packet size per connected requestor and responder (Byte)
system.membus.pktSize::total               1153700648                       # Cumulative packet size per connected requestor and responder (Byte)
system.membus.snoops                                0                       # Total snoops (Count)
system.membus.snoopTraffic                          0                       # Total snoop traffic (Byte)       
system.membus.snoopFanout::samples          156031694                       # Request fanout histogram (Count) 
system.membus.snoopFanout::mean                     0                       # Request fanout histogram (Count) 
system.membus.snoopFanout::stdev                    0                       # Request fanout histogram (Count) 
system.membus.snoopFanout::underflows               0      0.00%      0.00% # Request fanout histogram (Count) 
system.membus.snoopFanout::0                156031694    100.00%    100.00% # Request fanout histogram (Count) 
system.membus.snoopFanout::1                        0      0.00%    100.00% # Request fanout histogram (Count) 
system.membus.snoopFanout::overflows                0      0.00%    100.00% # Request fanout histogram (Count) 
system.membus.snoopFanout::min_value                0                       # Request fanout histogram (Count) 
system.membus.snoopFanout::max_value                0                       # Request fanout histogram (Count) 
system.membus.snoopFanout::total            156031694                       # Request fanout histogram (Count) 
system.membus.power_state.pwrStateResidencyTicks::UNDEFINED 8414368249000                       # Cumulative time (in ticks) in various power states (Tick)
system.membus.reqLayer2.occupancy        160728537000                       # Layer occupancy (ticks) (Tick)   
system.membus.reqLayer2.utilization               0.0                       # Layer utilization (Ratio)        
system.membus.respLayer0.occupancy       308055838500                       # Layer occupancy (ticks) (Tick)   
system.membus.respLayer0.utilization              0.0                       # Layer utilization (Ratio)        
system.membus.respLayer1.occupancy        70326413250                       # Layer occupancy (ticks) (Tick)   
system.membus.respLayer1.utilization              0.0                       # Layer utilization (Ratio)        
system.membus.snoop_filter.totRequests              0                       # Total number of requests made to the snoop filter. (Count)
system.membus.snoop_filter.hitSingleRequests            0                       # Number of requests hitting in the snoop filter with a single holder of the requested data. (Count)
system.membus.snoop_filter.hitMultiRequests            0                       # Number of requests hitting in the snoop filter with multiple (>1) holders of the requested data. (Count)
system.membus.snoop_filter.totSnoops                0                       # Total number of snoops made to the snoop filter. (Count)
system.membus.snoop_filter.hitSingleSnoops            0                       # Number of snoops hitting in the snoop filter with a single holder of the requested data. (Count)
system.membus.snoop_filter.hitMultiSnoops            0                       # Number of snoops hitting in the snoop filter with multiple (>1) holders of the requested data. (Count)
system.workload.inst.arm                            0                       # number of arm instructions executed (Count)
system.workload.inst.quiesce                        0                       # number of quiesce instructions executed (Count)

---------- End Simulation Statistics   ----------